1
    SWAT Dec 11 2014    VER 2012/Rev 635                                                                 0/ 0/   0      0: 0: 0

    General Input/Output section (file.cio):                                        
    7/10/2017 12:00:00 AM ARCGIS-SWAT interface AV                                  
                                                                                    


       RCH      GIS  MO DA   YR     AREAkm2  FLOW_INcms FLOW_OUTcms     EVAPcms    TLOSScms  SED_INtons SED_OUTtonsSEDCONCmg/kg   ORGN_INkg  ORGN_OUTkg   ORGP_INkg  ORGP_OUTkg    NO3_INkg   NO3_OUTkg    NH4_INkg   NH4_OUTkg    NO2_INkg   NO2_OUTkg   MINP_INkg  MINP_OUTkg   CHLA_INkg  CHLA_OUTkg   CBOD_INkg  CBOD_OUTkg  DISOX_INkg DISOX_OUTkg SOLPST_INmgSOLPST_OUTmg SORPST_INmgSORPST_OUTmg  REACTPSTmg    VOLPSTmg  SETTLPSTmgRESUSP_PSTmgDIFFUSEPSTmgREACBEDPSTmg   BURYPSTmg   BED_PSTmg BACTP_OUTctBACTLP_OUTct  CMETAL#1kg  CMETAL#2kg  CMETAL#3kg     TOT Nkg     TOT Pkg NO3ConcMg/l    WTMPdegc
REACH    1        0   1  1 2011   0.1078E+04  0.1194E-04  0.0000E+00  0.1194E-04  0.0000E+00  0.2272E-07  0.0000E+00  0.0000E+00  0.1032E-03  0.0000E+00  0.3096E-03  0.0000E+00  0.1033E-03  0.0000E+00  0.0000E+00  0.0000E+00  0.0000E+00  0.0000E+00  0.1033E-03  0.0000E+00  0.0000E+00  0.0000E+00  0.0000E+00  0.0000E+00  0.0000E+00  0.0000E+00  0.0000E+00  0.0000E+00  0.0000E+00  0.0000E+00  0.0000E+00  0.0000E+00  0.0000E+00  0.0000E+00  0.0000E+00  0.0000E+00  0.0000E+00  0.0000E+00  0.0000E+00  0.0000E+00  0.0000E+00  0.0000E+00  0.0000E+00  0.0000E+00  0.0000E+00  0.0000E+00  0.1467E+02
REACH    2        0   1  1 2011   0.7273E+03  0.8363E-05  0.0000E+00  0.8363E-05  0.0000E+00  0.2194E-07  0.0000E+00  0.0000E+00  0.7225E-04  0.0000E+00  0.2168E-03  0.0000E+00  0.7233E-04  0.0000E+00  0.0000E+00  0.0000E+00  0.0000E+00  0.0000E+00  0.7233E-04  0.0000E+00  0.0000E+00  0.0000E+00  0.0000E+00  0.0000E+00  0.0000E+00  0.0000E+00  0.0000E+00  0.0000E+00  0.0000E+00  0.0000E+00  0.0000E+00  0.0000E+00  0.0000E+00  0.0000E+00  0.0000E+00  0.0000E+00  0.0000E+00  0.0000E+00  0.0000E+00  0.0000E+00  0.0000E+00  0.0000E+00  0.0000E+00  0.0000E+00  0.0000E+00  0.0000E+00  0.1467E+02
REACH    3        0   1  1 2011   0.3693E+03  0.3377E-05  0.0000E+00  0.3377E-05  0.0000E+00  0.3663E-08  0.0000E+00  0.0000E+00  0.2918E-04  0.0000E+00  0.8754E-04  0.0000E+00  0.2922E-04  0.0000E+00  0.0000E+00  0.0000E+00  0.0000E+00  0.0000E+00  0.2922E-04  0.0000E+00  0.0000E+00  0.0000E+00  0.0000E+00  0.0000E+00  0.0000E+00  0.0000E+00  0.0000E+00  0.0000E+00  0.0000E+00  0.0000E+00  0.0000E+00  0.0000E+00  0.0000E+00  0.0000E+00  0.0000E+00  0.0000E+00  0.0000E+00  0.0000E+00  0.0000E+00  0.0000E+00  0.0000E+00  0.0000E+00  0.0000E+00  0.0000E+00  0.0000E+00  0.0000E+00  0.1467E+02
REACH    4        0   1  1 2011   0.7224E+03  0.5699E-05  0.0000E+00  0.5699E-05  0.0000E+00  0.3231E-08  0.0000E+00  0.0000E+00  0.4924E-04  0.0000E+00  0.1477E-03  0.0000E+00  0.4931E-04  0.0000E+00  0.0000E+00  0.0000E+00  0.0000E+00  0.0000E+00  0.4931E-04  0.0000E+00  0.0000E+00  0.0000E+00  0.0000E+00  0.0000E+00  0.0000E+00  0.0000E+00  0.0000E+00  0.0000E+00  0.0000E+00  0.0000E+00  0.0000E+00  0.0000E+00  0.0000E+00  0.0000E+00  0.0000E+00  0.0000E+00  0.0000E+00  0.0000E+00  0.0000E+00  0.0000E+00  0.0000E+00  0.0000E+00  0.0000E+00  0.0000E+00  0.0000E+00  0.0000E+00  0.1467E+02
REACH    5        0   1  1 2011   0.1119E+04  0.9345E-05  0.0000E+00  0.9345E-05  0.0000E+00  0.5272E-08  0.0000E+00  0.0000E+00  0.8074E-04  0.0000E+00  0.2422E-03  0.0000E+00  0.8085E-04  0.0000E+00  0.0000E+00  0.0000E+00  0.0000E+00  0.0000E+00  0.8085E-04  0.0000E+00  0.0000E+00  0.0000E+00  0.0000E+00  0.0000E+00  0.0000E+00  0.0000E+00  0.0000E+00  0.0000E+00  0.0000E+00  0.0000E+00  0.0000E+00  0.0000E+00  0.0000E+00  0.0000E+00  0.0000E+00  0.0000E+00  0.0000E+00  0.0000E+00  0.0000E+00  0.0000E+00  0.0000E+00  0.0000E+00  0.0000E+00  0.0000E+00  0.0000E+00  0.0000E+00  0.1467E+02
REACH    6        0   1  1 2011   0.2662E+03  0.2642E-05  0.0000E+00  0.2642E-05  0.0000E+00  0.1796E-08  0.0000E+00  0.0000E+00  0.2283E-04  0.0000E+00  0.6849E-04  0.0000E+00  0.2286E-04  0.0000E+00  0.0000E+00  0.0000E+00  0.0000E+00  0.0000E+00  0.2286E-04  0.0000E+00  0.0000E+00  0.0000E+00  0.0000E+00  0.0000E+00  0.0000E+00  0.0000E+00  0.0000E+00  0.0000E+00  0.0000E+00  0.0000E+00  0.0000E+00  0.0000E+00  0.0000E+00  0.0000E+00  0.0000E+00  0.0000E+00  0.0000E+00  0.0000E+00  0.0000E+00  0.0000E+00  0.0000E+00  0.0000E+00  0.0000E+00  0.0000E+00  0.0000E+00  0.0000E+00  0.1467E+02
REACH    7        0   1  1 2011   0.1109E+04  0.1953E-06  0.0000E+00  0.1953E-06  0.0000E+00  0.3999E-08  0.0000E+00  0.0000E+00  0.1688E-05  0.0000E+00  0.5063E-05  0.0000E+00  0.1689E-05  0.0000E+00  0.0000E+00  0.0000E+00  0.0000E+00  0.0000E+00  0.1689E-05  0.0000E+00  0.0000E+00  0.0000E+00  0.0000E+00  0.0000E+00  0.0000E+00  0.0000E+00  0.0000E+00  0.0000E+00  0.0000E+00  0.0000E+00  0.0000E+00  0.0000E+00  0.0000E+00  0.0000E+00  0.0000E+00  0.0000E+00  0.0000E+00  0.0000E+00  0.0000E+00  0.0000E+00  0.0000E+00  0.0000E+00  0.0000E+00  0.0000E+00  0.0000E+00  0.0000E+00  0.1467E+02
REACH    8        0   1  1 2011   0.2331E+04  0.3571E-05  0.0000E+00  0.3571E-05  0.0000E+00  0.1430E-08  0.0000E+00  0.0000E+00  0.3085E-04  0.0000E+00  0.9256E-04  0.0000E+00  0.3091E-04  0.0000E+00  0.0000E+00  0.0000E+00  0.0000E+00  0.0000E+00  0.3091E-04  0.0000E+00  0.0000E+00  0.0000E+00  0.0000E+00  0.0000E+00  0.0000E+00  0.0000E+00  0.0000E+00  0.0000E+00  0.0000E+00  0.0000E+00  0.0000E+00  0.0000E+00  0.0000E+00  0.0000E+00  0.0000E+00  0.0000E+00  0.0000E+00  0.0000E+00  0.0000E+00  0.0000E+00  0.0000E+00  0.0000E+00  0.0000E+00  0.0000E+00  0.0000E+00  0.0000E+00  0.1467E+02
REACH    9        0   1  1 2011   0.1487E+04  0.1138E-05  0.0000E+00  0.1138E-05  0.0000E+00  0.1833E-08  0.0000E+00  0.0000E+00  0.9830E-05  0.0000E+00  0.2949E-04  0.0000E+00  0.9841E-05  0.0000E+00  0.0000E+00  0.0000E+00  0.0000E+00  0.0000E+00  0.9841E-05  0.0000E+00  0.0000E+00  0.0000E+00  0.0000E+00  0.0000E+00  0.0000E+00  0.0000E+00  0.0000E+00  0.0000E+00  0.0000E+00  0.0000E+00  0.0000E+00  0.0000E+00  0.0000E+00  0.0000E+00  0.0000E+00  0.0000E+00  0.0000E+00  0.0000E+00  0.0000E+00  0.0000E+00  0.0000E+00  0.0000E+00  0.0000E+00  0.0000E+00  0.0000E+00  0.0000E+00  0.1467E+02
REACH   10        0   1  1 2011   0.3098E+03  0.2938E-05  0.0000E+00  0.2938E-05  0.0000E+00  0.3664E-08  0.0000E+00  0.0000E+00  0.2539E-04  0.0000E+00  0.7616E-04  0.0000E+00  0.2542E-04  0.0000E+00  0.0000E+00  0.0000E+00  0.0000E+00  0.0000E+00  0.2542E-04  0.0000E+00  0.0000E+00  0.0000E+00  0.0000E+00  0.0000E+00  0.0000E+00  0.0000E+00  0.0000E+00  0.0000E+00  0.0000E+00  0.0000E+00  0.0000E+00  0.0000E+00  0.0000E+00  0.0000E+00  0.0000E+00  0.0000E+00  0.0000E+00  0.0000E+00  0.0000E+00  0.0000E+00  0.0000E+00  0.0000E+00  0.0000E+00  0.0000E+00  0.0000E+00  0.0000E+00  0.1467E+02
REACH   11        0   1  1 2011   0.2547E+04  0.2458E-04  0.0000E+00  0.2458E-04  0.0000E+00  0.1664E-07  0.0000E+00  0.0000E+00  0.2123E-03  0.0000E+00  0.6370E-03  0.0000E+00  0.2126E-03  0.0000E+00  0.0000E+00  0.0000E+00  0.0000E+00  0.0000E+00  0.2126E-03  0.0000E+00  0.0000E+00  0.0000E+00  0.0000E+00  0.0000E+00  0.0000E+00  0.0000E+00  0.0000E+00  0.0000E+00  0.0000E+00  0.0000E+00  0.0000E+00  0.0000E+00  0.0000E+00  0.0000E+00  0.0000E+00  0.0000E+00  0.0000E+00  0.0000E+00  0.0000E+00  0.0000E+00  0.0000E+00  0.0000E+00  0.0000E+00  0.0000E+00  0.0000E+00  0.0000E+00  0.1467E+02
REACH   12        0   1  1 2011   0.2649E+03  0.3066E-05  0.0000E+00  0.3066E-05  0.0000E+00  0.3000E-07  0.0000E+00  0.0000E+00  0.2649E-04  0.0000E+00  0.7946E-04  0.0000E+00  0.2651E-04  0.0000E+00  0.0000E+00  0.0000E+00  0.0000E+00  0.0000E+00  0.2651E-04  0.0000E+00  0.0000E+00  0.0000E+00  0.0000E+00  0.0000E+00  0.0000E+00  0.0000E+00  0.0000E+00  0.0000E+00  0.0000E+00  0.0000E+00  0.0000E+00  0.0000E+00  0.0000E+00  0.0000E+00  0.0000E+00  0.0000E+00  0.0000E+00  0.0000E+00  0.0000E+00  0.0000E+00  0.0000E+00  0.0000E+00  0.0000E+00  0.0000E+00  0.0000E+00  0.0000E+00  0.1467E+02
REACH   13        0   1  1 2011   0.4031E+03  0.4557E-05  0.0000E+00  0.4557E-05  0.0000E+00  0.1588E-07  0.0000E+00  0.0000E+00  0.3937E-04  0.0000E+00  0.1181E-03  0.0000E+00  0.3941E-04  0.0000E+00  0.0000E+00  0.0000E+00  0.0000E+00  0.0000E+00  0.3941E-04  0.0000E+00  0.0000E+00  0.0000E+00  0.0000E+00  0.0000E+00  0.0000E+00  0.0000E+00  0.0000E+00  0.0000E+00  0.0000E+00  0.0000E+00  0.0000E+00  0.0000E+00  0.0000E+00  0.0000E+00  0.0000E+00  0.0000E+00  0.0000E+00  0.0000E+00  0.0000E+00  0.0000E+00  0.0000E+00  0.0000E+00  0.0000E+00  0.0000E+00  0.0000E+00  0.0000E+00  0.1467E+02
REACH   14        0   1  1 2011   0.2818E+04  0.7828E-07  0.0000E+00  0.7828E-07  0.0000E+00  0.4000E-08  0.0000E+00  0.0000E+00  0.6763E-06  0.0000E+00  0.2029E-05  0.0000E+00  0.6770E-06  0.0000E+00  0.0000E+00  0.0000E+00  0.0000E+00  0.0000E+00  0.6770E-06  0.0000E+00  0.0000E+00  0.0000E+00  0.0000E+00  0.0000E+00  0.0000E+00  0.0000E+00  0.0000E+00  0.0000E+00  0.0000E+00  0.0000E+00  0.0000E+00  0.0000E+00  0.0000E+00  0.0000E+00  0.0000E+00  0.0000E+00  0.0000E+00  0.0000E+00  0.0000E+00  0.0000E+00  0.0000E+00  0.0000E+00  0.0000E+00  0.0000E+00  0.0000E+00  0.0000E+00  0.1467E+02
REACH   15        0   1  1 2011   0.2317E+04  0.4456E-05  0.0000E+00  0.4456E-05  0.0000E+00  0.1520E-08  0.0000E+00  0.0000E+00  0.3850E-04  0.0000E+00  0.1155E-03  0.0000E+00  0.3855E-04  0.0000E+00  0.0000E+00  0.0000E+00  0.0000E+00  0.0000E+00  0.3855E-04  0.0000E+00  0.0000E+00  0.0000E+00  0.0000E+00  0.0000E+00  0.0000E+00  0.0000E+00  0.0000E+00  0.0000E+00  0.0000E+00  0.0000E+00  0.0000E+00  0.0000E+00  0.0000E+00  0.0000E+00  0.0000E+00  0.0000E+00  0.0000E+00  0.0000E+00  0.0000E+00  0.0000E+00  0.0000E+00  0.0000E+00  0.0000E+00  0.0000E+00  0.0000E+00  0.0000E+00  0.1467E+02
REACH   16        0   1  1 2011   0.2542E+03  0.2721E-05  0.0000E+00  0.2721E-05  0.0000E+00  0.6653E-08  0.0000E+00  0.0000E+00  0.2351E-04  0.0000E+00  0.7053E-04  0.0000E+00  0.2353E-04  0.0000E+00  0.0000E+00  0.0000E+00  0.0000E+00  0.0000E+00  0.2353E-04  0.0000E+00  0.0000E+00  0.0000E+00  0.0000E+00  0.0000E+00  0.0000E+00  0.0000E+00  0.0000E+00  0.0000E+00  0.0000E+00  0.0000E+00  0.0000E+00  0.0000E+00  0.0000E+00  0.0000E+00  0.0000E+00  0.0000E+00  0.0000E+00  0.0000E+00  0.0000E+00  0.0000E+00  0.0000E+00  0.0000E+00  0.0000E+00  0.0000E+00  0.0000E+00  0.0000E+00  0.1467E+02
REACH   17        0   1  1 2011   0.6354E+03  0.6943E-05  0.0000E+00  0.6943E-05  0.0000E+00  0.7680E-08  0.0000E+00  0.0000E+00  0.5998E-04  0.0000E+00  0.1800E-03  0.0000E+00  0.6005E-04  0.0000E+00  0.0000E+00  0.0000E+00  0.0000E+00  0.0000E+00  0.6005E-04  0.0000E+00  0.0000E+00  0.0000E+00  0.0000E+00  0.0000E+00  0.0000E+00  0.0000E+00  0.0000E+00  0.0000E+00  0.0000E+00  0.0000E+00  0.0000E+00  0.0000E+00  0.0000E+00  0.0000E+00  0.0000E+00  0.0000E+00  0.0000E+00  0.0000E+00  0.0000E+00  0.0000E+00  0.0000E+00  0.0000E+00  0.0000E+00  0.0000E+00  0.0000E+00  0.0000E+00  0.1467E+02
REACH   18        0   1  1 2011   0.3248E+04  0.1510E-05  0.0000E+00  0.1510E-05  0.0000E+00  0.5807E-08  0.0000E+00  0.0000E+00  0.1305E-04  0.0000E+00  0.3915E-04  0.0000E+00  0.1306E-04  0.0000E+00  0.0000E+00  0.0000E+00  0.0000E+00  0.0000E+00  0.1306E-04  0.0000E+00  0.0000E+00  0.0000E+00  0.0000E+00  0.0000E+00  0.0000E+00  0.0000E+00  0.0000E+00  0.0000E+00  0.0000E+00  0.0000E+00  0.0000E+00  0.0000E+00  0.0000E+00  0.0000E+00  0.0000E+00  0.0000E+00  0.0000E+00  0.0000E+00  0.0000E+00  0.0000E+00  0.0000E+00  0.0000E+00  0.0000E+00  0.0000E+00  0.0000E+00  0.0000E+00  0.1467E+02
REACH   19        0   1  1 2011   0.2692E+04  0.1267E-05  0.0000E+00  0.1267E-05  0.0000E+00  0.3749E-08  0.0000E+00  0.0000E+00  0.1095E-04  0.0000E+00  0.3285E-04  0.0000E+00  0.1096E-04  0.0000E+00  0.0000E+00  0.0000E+00  0.0000E+00  0.0000E+00  0.1096E-04  0.0000E+00  0.0000E+00  0.0000E+00  0.0000E+00  0.0000E+00  0.0000E+00  0.0000E+00  0.0000E+00  0.0000E+00  0.0000E+00  0.0000E+00  0.0000E+00  0.0000E+00  0.0000E+00  0.0000E+00  0.0000E+00  0.0000E+00  0.0000E+00  0.0000E+00  0.0000E+00  0.0000E+00  0.0000E+00  0.0000E+00  0.0000E+00  0.0000E+00  0.0000E+00  0.0000E+00  0.1467E+02
REACH   20        0   1  1 2011   0.4150E+03  0.4724E-05  0.0000E+00  0.4724E-05  0.0000E+00  0.1784E-07  0.0000E+00  0.0000E+00  0.4082E-04  0.0000E+00  0.1225E-03  0.0000E+00  0.4086E-04  0.0000E+00  0.0000E+00  0.0000E+00  0.0000E+00  0.0000E+00  0.4086E-04  0.0000E+00  0.0000E+00  0.0000E+00  0.0000E+00  0.0000E+00  0.0000E+00  0.0000E+00  0.0000E+00  0.0000E+00  0.0000E+00  0.0000E+00  0.0000E+00  0.0000E+00  0.0000E+00  0.0000E+00  0.0000E+00  0.0000E+00  0.0000E+00  0.0000E+00  0.0000E+00  0.0000E+00  0.0000E+00  0.0000E+00  0.0000E+00  0.0000E+00  0.0000E+00  0.0000E+00  0.1467E+02
REACH   21        0   1  1 2011   0.8851E+03  0.6100E-05  0.0000E+00  0.6100E-05  0.0000E+00  0.3285E-08  0.0000E+00  0.0000E+00  0.5270E-04  0.0000E+00  0.1581E-03  0.0000E+00  0.5279E-04  0.0000E+00  0.0000E+00  0.0000E+00  0.0000E+00  0.0000E+00  0.5279E-04  0.0000E+00  0.0000E+00  0.0000E+00  0.0000E+00  0.0000E+00  0.0000E+00  0.0000E+00  0.0000E+00  0.0000E+00  0.0000E+00  0.0000E+00  0.0000E+00  0.0000E+00  0.0000E+00  0.0000E+00  0.0000E+00  0.0000E+00  0.0000E+00  0.0000E+00  0.0000E+00  0.0000E+00  0.0000E+00  0.0000E+00  0.0000E+00  0.0000E+00  0.0000E+00  0.0000E+00  0.1467E+02
REACH   22        0   1  1 2011   0.4670E+04  0.9680E-05  0.0000E+00  0.9680E-05  0.0000E+00  0.3341E-08  0.0000E+00  0.0000E+00  0.8363E-04  0.0000E+00  0.2509E-03  0.0000E+00  0.8376E-04  0.0000E+00  0.0000E+00  0.0000E+00  0.0000E+00  0.0000E+00  0.8376E-04  0.0000E+00  0.0000E+00  0.0000E+00  0.0000E+00  0.0000E+00  0.0000E+00  0.0000E+00  0.0000E+00  0.0000E+00  0.0000E+00  0.0000E+00  0.0000E+00  0.0000E+00  0.0000E+00  0.0000E+00  0.0000E+00  0.0000E+00  0.0000E+00  0.0000E+00  0.0000E+00  0.0000E+00  0.0000E+00  0.0000E+00  0.0000E+00  0.0000E+00  0.0000E+00  0.0000E+00  0.1467E+02
REACH   23        0   1  1 2011   0.5559E+04  0.3909E-07  0.0000E+00  0.3909E-07  0.0000E+00  0.9999E-09  0.0000E+00  0.0000E+00  0.3377E-06  0.0000E+00  0.1013E-05  0.0000E+00  0.3381E-06  0.0000E+00  0.0000E+00  0.0000E+00  0.0000E+00  0.0000E+00  0.3381E-06  0.0000E+00  0.0000E+00  0.0000E+00  0.0000E+00  0.0000E+00  0.0000E+00  0.0000E+00  0.0000E+00  0.0000E+00  0.0000E+00  0.0000E+00  0.0000E+00  0.0000E+00  0.0000E+00  0.0000E+00  0.0000E+00  0.0000E+00  0.0000E+00  0.0000E+00  0.0000E+00  0.0000E+00  0.0000E+00  0.0000E+00  0.0000E+00  0.0000E+00  0.0000E+00  0.0000E+00  0.1467E+02
REACH   24        0   1  1 2011   0.2787E+03  0.2450E-05  0.0000E+00  0.2450E-05  0.0000E+00  0.1678E-08  0.0000E+00  0.0000E+00  0.2117E-04  0.0000E+00  0.6351E-04  0.0000E+00  0.2120E-04  0.0000E+00  0.0000E+00  0.0000E+00  0.0000E+00  0.0000E+00  0.2120E-04  0.0000E+00  0.0000E+00  0.0000E+00  0.0000E+00  0.0000E+00  0.0000E+00  0.0000E+00  0.0000E+00  0.0000E+00  0.0000E+00  0.0000E+00  0.0000E+00  0.0000E+00  0.0000E+00  0.0000E+00  0.0000E+00  0.0000E+00  0.0000E+00  0.0000E+00  0.0000E+00  0.0000E+00  0.0000E+00  0.0000E+00  0.0000E+00  0.0000E+00  0.0000E+00  0.0000E+00  0.1423E+02
REACH   25        0   1  1 2011   0.3690E+04  0.4885E-05  0.0000E+00  0.4885E-05  0.0000E+00  0.5736E-08  0.0000E+00  0.0000E+00  0.4221E-04  0.0000E+00  0.1266E-03  0.0000E+00  0.4226E-04  0.0000E+00  0.0000E+00  0.0000E+00  0.0000E+00  0.0000E+00  0.4226E-04  0.0000E+00  0.0000E+00  0.0000E+00  0.0000E+00  0.0000E+00  0.0000E+00  0.0000E+00  0.0000E+00  0.0000E+00  0.0000E+00  0.0000E+00  0.0000E+00  0.0000E+00  0.0000E+00  0.0000E+00  0.0000E+00  0.0000E+00  0.0000E+00  0.0000E+00  0.0000E+00  0.0000E+00  0.0000E+00  0.0000E+00  0.0000E+00  0.0000E+00  0.0000E+00  0.0000E+00  0.1423E+02
REACH   26        0   1  1 2011   0.4643E+04  0.1383E-05  0.0000E+00  0.1383E-05  0.0000E+00  0.2576E-07  0.0000E+00  0.0000E+00  0.1195E-04  0.0000E+00  0.3586E-04  0.0000E+00  0.1197E-04  0.0000E+00  0.0000E+00  0.0000E+00  0.0000E+00  0.0000E+00  0.1197E-04  0.0000E+00  0.0000E+00  0.0000E+00  0.0000E+00  0.0000E+00  0.0000E+00  0.0000E+00  0.0000E+00  0.0000E+00  0.0000E+00  0.0000E+00  0.0000E+00  0.0000E+00  0.0000E+00  0.0000E+00  0.0000E+00  0.0000E+00  0.0000E+00  0.0000E+00  0.0000E+00  0.0000E+00  0.0000E+00  0.0000E+00  0.0000E+00  0.0000E+00  0.0000E+00  0.0000E+00  0.1423E+02
REACH   27        0   1  1 2011   0.3074E+03  0.3553E-05  0.0000E+00  0.3553E-05  0.0000E+00  0.2394E-07  0.0000E+00  0.0000E+00  0.3069E-04  0.0000E+00  0.9208E-04  0.0000E+00  0.3073E-04  0.0000E+00  0.0000E+00  0.0000E+00  0.0000E+00  0.0000E+00  0.3073E-04  0.0000E+00  0.0000E+00  0.0000E+00  0.0000E+00  0.0000E+00  0.0000E+00  0.0000E+00  0.0000E+00  0.0000E+00  0.0000E+00  0.0000E+00  0.0000E+00  0.0000E+00  0.0000E+00  0.0000E+00  0.0000E+00  0.0000E+00  0.0000E+00  0.0000E+00  0.0000E+00  0.0000E+00  0.0000E+00  0.0000E+00  0.0000E+00  0.0000E+00  0.0000E+00  0.0000E+00  0.1423E+02
REACH   28        0   1  1 2011   0.2568E+03  0.2430E-05  0.0000E+00  0.2430E-05  0.0000E+00  0.1722E-08  0.0000E+00  0.0000E+00  0.2099E-04  0.0000E+00  0.6298E-04  0.0000E+00  0.2102E-04  0.0000E+00  0.0000E+00  0.0000E+00  0.0000E+00  0.0000E+00  0.2102E-04  0.0000E+00  0.0000E+00  0.0000E+00  0.0000E+00  0.0000E+00  0.0000E+00  0.0000E+00  0.0000E+00  0.0000E+00  0.0000E+00  0.0000E+00  0.0000E+00  0.0000E+00  0.0000E+00  0.0000E+00  0.0000E+00  0.0000E+00  0.0000E+00  0.0000E+00  0.0000E+00  0.0000E+00  0.0000E+00  0.0000E+00  0.0000E+00  0.0000E+00  0.0000E+00  0.0000E+00  0.1423E+02
REACH   29        0   1  1 2011   0.4659E+03  0.4248E-05  0.0000E+00  0.4248E-05  0.0000E+00  0.5254E-08  0.0000E+00  0.0000E+00  0.3671E-04  0.0000E+00  0.1101E-03  0.0000E+00  0.3675E-04  0.0000E+00  0.0000E+00  0.0000E+00  0.0000E+00  0.0000E+00  0.3675E-04  0.0000E+00  0.0000E+00  0.0000E+00  0.0000E+00  0.0000E+00  0.0000E+00  0.0000E+00  0.0000E+00  0.0000E+00  0.0000E+00  0.0000E+00  0.0000E+00  0.0000E+00  0.0000E+00  0.0000E+00  0.0000E+00  0.0000E+00  0.0000E+00  0.0000E+00  0.0000E+00  0.0000E+00  0.0000E+00  0.0000E+00  0.0000E+00  0.0000E+00  0.0000E+00  0.0000E+00  0.1423E+02
REACH   30        0   1  1 2011   0.8332E+03  0.8091E-05  0.0000E+00  0.8091E-05  0.0000E+00  0.1655E-07  0.0000E+00  0.0000E+00  0.6991E-04  0.0000E+00  0.2097E-03  0.0000E+00  0.6999E-04  0.0000E+00  0.0000E+00  0.0000E+00  0.0000E+00  0.0000E+00  0.6999E-04  0.0000E+00  0.0000E+00  0.0000E+00  0.0000E+00  0.0000E+00  0.0000E+00  0.0000E+00  0.0000E+00  0.0000E+00  0.0000E+00  0.0000E+00  0.0000E+00  0.0000E+00  0.0000E+00  0.0000E+00  0.0000E+00  0.0000E+00  0.0000E+00  0.0000E+00  0.0000E+00  0.0000E+00  0.0000E+00  0.0000E+00  0.0000E+00  0.0000E+00  0.0000E+00  0.0000E+00  0.1423E+02
REACH   31        0   1  1 2011   0.6430E+04  0.5428E-05  0.0000E+00  0.5428E-05  0.0000E+00  0.3632E-08  0.0000E+00  0.0000E+00  0.4690E-04  0.0000E+00  0.1407E-03  0.0000E+00  0.4696E-04  0.0000E+00  0.0000E+00  0.0000E+00  0.0000E+00  0.0000E+00  0.4696E-04  0.0000E+00  0.0000E+00  0.0000E+00  0.0000E+00  0.0000E+00  0.0000E+00  0.0000E+00  0.0000E+00  0.0000E+00  0.0000E+00  0.0000E+00  0.0000E+00  0.0000E+00  0.0000E+00  0.0000E+00  0.0000E+00  0.0000E+00  0.0000E+00  0.0000E+00  0.0000E+00  0.0000E+00  0.0000E+00  0.0000E+00  0.0000E+00  0.0000E+00  0.0000E+00  0.0000E+00  0.1423E+02
REACH   32        0   1  1 2011   0.8366E+04  0.9289E-06  0.0000E+00  0.9289E-06  0.0000E+00  0.4980E-08  0.0000E+00  0.0000E+00  0.8026E-05  0.0000E+00  0.2408E-04  0.0000E+00  0.8034E-05  0.0000E+00  0.0000E+00  0.0000E+00  0.0000E+00  0.0000E+00  0.8034E-05  0.0000E+00  0.0000E+00  0.0000E+00  0.0000E+00  0.0000E+00  0.0000E+00  0.0000E+00  0.0000E+00  0.0000E+00  0.0000E+00  0.0000E+00  0.0000E+00  0.0000E+00  0.0000E+00  0.0000E+00  0.0000E+00  0.0000E+00  0.0000E+00  0.0000E+00  0.0000E+00  0.0000E+00  0.0000E+00  0.0000E+00  0.0000E+00  0.0000E+00  0.0000E+00  0.0000E+00  0.1423E+02
REACH   33        0   1  1 2011   0.8902E+03  0.1504E-05  0.0000E+00  0.1504E-05  0.0000E+00  0.1728E-08  0.0000E+00  0.0000E+00  0.1300E-04  0.0000E+00  0.3899E-04  0.0000E+00  0.1301E-04  0.0000E+00  0.0000E+00  0.0000E+00  0.0000E+00  0.0000E+00  0.1301E-04  0.0000E+00  0.0000E+00  0.0000E+00  0.0000E+00  0.0000E+00  0.0000E+00  0.0000E+00  0.0000E+00  0.0000E+00  0.0000E+00  0.0000E+00  0.0000E+00  0.0000E+00  0.0000E+00  0.0000E+00  0.0000E+00  0.0000E+00  0.0000E+00  0.0000E+00  0.0000E+00  0.0000E+00  0.0000E+00  0.0000E+00  0.0000E+00  0.0000E+00  0.0000E+00  0.0000E+00  0.1423E+02
REACH   34        0   1  1 2011   0.4893E+04  0.1021E-04  0.0000E+00  0.1021E-04  0.0000E+00  0.1014E-07  0.0000E+00  0.0000E+00  0.8820E-04  0.0000E+00  0.2646E-03  0.0000E+00  0.8830E-04  0.0000E+00  0.0000E+00  0.0000E+00  0.0000E+00  0.0000E+00  0.8830E-04  0.0000E+00  0.0000E+00  0.0000E+00  0.0000E+00  0.0000E+00  0.0000E+00  0.0000E+00  0.0000E+00  0.0000E+00  0.0000E+00  0.0000E+00  0.0000E+00  0.0000E+00  0.0000E+00  0.0000E+00  0.0000E+00  0.0000E+00  0.0000E+00  0.0000E+00  0.0000E+00  0.0000E+00  0.0000E+00  0.0000E+00  0.0000E+00  0.0000E+00  0.0000E+00  0.0000E+00  0.1423E+02
REACH   35        0   1  1 2011   0.5334E+04  0.4168E-05  0.0000E+00  0.4168E-05  0.0000E+00  0.7794E-08  0.0000E+00  0.0000E+00  0.3601E-04  0.0000E+00  0.1080E-03  0.0000E+00  0.3605E-04  0.0000E+00  0.0000E+00  0.0000E+00  0.0000E+00  0.0000E+00  0.3605E-04  0.0000E+00  0.0000E+00  0.0000E+00  0.0000E+00  0.0000E+00  0.0000E+00  0.0000E+00  0.0000E+00  0.0000E+00  0.0000E+00  0.0000E+00  0.0000E+00  0.0000E+00  0.0000E+00  0.0000E+00  0.0000E+00  0.0000E+00  0.0000E+00  0.0000E+00  0.0000E+00  0.0000E+00  0.0000E+00  0.0000E+00  0.0000E+00  0.0000E+00  0.0000E+00  0.0000E+00  0.1423E+02
REACH   36        0   1  1 2011   0.4072E+03  0.4195E-05  0.0000E+00  0.4195E-05  0.0000E+00  0.1076E-07  0.0000E+00  0.0000E+00  0.3625E-04  0.0000E+00  0.1087E-03  0.0000E+00  0.3629E-04  0.0000E+00  0.0000E+00  0.0000E+00  0.0000E+00  0.0000E+00  0.3629E-04  0.0000E+00  0.0000E+00  0.0000E+00  0.0000E+00  0.0000E+00  0.0000E+00  0.0000E+00  0.0000E+00  0.0000E+00  0.0000E+00  0.0000E+00  0.0000E+00  0.0000E+00  0.0000E+00  0.0000E+00  0.0000E+00  0.0000E+00  0.0000E+00  0.0000E+00  0.0000E+00  0.0000E+00  0.0000E+00  0.0000E+00  0.0000E+00  0.0000E+00  0.0000E+00  0.0000E+00  0.1423E+02
REACH   37        0   1  1 2011   0.1165E+04  0.3921E-05  0.0000E+00  0.3921E-05  0.0000E+00  0.1159E-07  0.0000E+00  0.0000E+00  0.3388E-04  0.0000E+00  0.1016E-03  0.0000E+00  0.3392E-04  0.0000E+00  0.0000E+00  0.0000E+00  0.0000E+00  0.0000E+00  0.3392E-04  0.0000E+00  0.0000E+00  0.0000E+00  0.0000E+00  0.0000E+00  0.0000E+00  0.0000E+00  0.0000E+00  0.0000E+00  0.0000E+00  0.0000E+00  0.0000E+00  0.0000E+00  0.0000E+00  0.0000E+00  0.0000E+00  0.0000E+00  0.0000E+00  0.0000E+00  0.0000E+00  0.0000E+00  0.0000E+00  0.0000E+00  0.0000E+00  0.0000E+00  0.0000E+00  0.0000E+00  0.1423E+02
REACH   38        0   1  1 2011   0.6011E+04  0.3064E-05  0.0000E+00  0.3064E-05  0.0000E+00  0.1793E-07  0.0000E+00  0.0000E+00  0.2647E-04  0.0000E+00  0.7942E-04  0.0000E+00  0.2650E-04  0.0000E+00  0.0000E+00  0.0000E+00  0.0000E+00  0.0000E+00  0.2650E-04  0.0000E+00  0.0000E+00  0.0000E+00  0.0000E+00  0.0000E+00  0.0000E+00  0.0000E+00  0.0000E+00  0.0000E+00  0.0000E+00  0.0000E+00  0.0000E+00  0.0000E+00  0.0000E+00  0.0000E+00  0.0000E+00  0.0000E+00  0.0000E+00  0.0000E+00  0.0000E+00  0.0000E+00  0.0000E+00  0.0000E+00  0.0000E+00  0.0000E+00  0.0000E+00  0.0000E+00  0.1423E+02
REACH   39        0   1  1 2011   0.4266E+03  0.3796E-05  0.0000E+00  0.3796E-05  0.0000E+00  0.5337E-08  0.0000E+00  0.0000E+00  0.3279E-04  0.0000E+00  0.9838E-04  0.0000E+00  0.3284E-04  0.0000E+00  0.0000E+00  0.0000E+00  0.0000E+00  0.0000E+00  0.3284E-04  0.0000E+00  0.0000E+00  0.0000E+00  0.0000E+00  0.0000E+00  0.0000E+00  0.0000E+00  0.0000E+00  0.0000E+00  0.0000E+00  0.0000E+00  0.0000E+00  0.0000E+00  0.0000E+00  0.0000E+00  0.0000E+00  0.0000E+00  0.0000E+00  0.0000E+00  0.0000E+00  0.0000E+00  0.0000E+00  0.0000E+00  0.0000E+00  0.0000E+00  0.0000E+00  0.0000E+00  0.1423E+02
REACH   40        0   1  1 2011   0.3211E+03  0.3316E-05  0.0000E+00  0.3316E-05  0.0000E+00  0.5762E-08  0.0000E+00  0.0000E+00  0.2865E-04  0.0000E+00  0.8595E-04  0.0000E+00  0.2868E-04  0.0000E+00  0.0000E+00  0.0000E+00  0.0000E+00  0.0000E+00  0.2868E-04  0.0000E+00  0.0000E+00  0.0000E+00  0.0000E+00  0.0000E+00  0.0000E+00  0.0000E+00  0.0000E+00  0.0000E+00  0.0000E+00  0.0000E+00  0.0000E+00  0.0000E+00  0.0000E+00  0.0000E+00  0.0000E+00  0.0000E+00  0.0000E+00  0.0000E+00  0.0000E+00  0.0000E+00  0.0000E+00  0.0000E+00  0.0000E+00  0.0000E+00  0.0000E+00  0.0000E+00  0.1423E+02
REACH   41        0   1  1 2011   0.1855E+04  0.2633E-05  0.0000E+00  0.2633E-05  0.0000E+00  0.1398E-08  0.0000E+00  0.0000E+00  0.2275E-04  0.0000E+00  0.6826E-04  0.0000E+00  0.2279E-04  0.0000E+00  0.0000E+00  0.0000E+00  0.0000E+00  0.0000E+00  0.2279E-04  0.0000E+00  0.0000E+00  0.0000E+00  0.0000E+00  0.0000E+00  0.0000E+00  0.0000E+00  0.0000E+00  0.0000E+00  0.0000E+00  0.0000E+00  0.0000E+00  0.0000E+00  0.0000E+00  0.0000E+00  0.0000E+00  0.0000E+00  0.0000E+00  0.0000E+00  0.0000E+00  0.0000E+00  0.0000E+00  0.0000E+00  0.0000E+00  0.0000E+00  0.0000E+00  0.0000E+00  0.1423E+02
REACH   42        0   1  1 2011   0.7865E+03  0.4469E-06  0.0000E+00  0.4469E-06  0.0000E+00  0.5988E-08  0.0000E+00  0.0000E+00  0.3861E-05  0.0000E+00  0.1158E-04  0.0000E+00  0.3865E-05  0.0000E+00  0.0000E+00  0.0000E+00  0.0000E+00  0.0000E+00  0.3865E-05  0.0000E+00  0.0000E+00  0.0000E+00  0.0000E+00  0.0000E+00  0.0000E+00  0.0000E+00  0.0000E+00  0.0000E+00  0.0000E+00  0.0000E+00  0.0000E+00  0.0000E+00  0.0000E+00  0.0000E+00  0.0000E+00  0.0000E+00  0.0000E+00  0.0000E+00  0.0000E+00  0.0000E+00  0.0000E+00  0.0000E+00  0.0000E+00  0.0000E+00  0.0000E+00  0.0000E+00  0.1423E+02
REACH   43        0   1  1 2011   0.9869E+04  0.6119E-05  0.0000E+00  0.6119E-05  0.0000E+00  0.4717E-08  0.0000E+00  0.0000E+00  0.5287E-04  0.0000E+00  0.1586E-03  0.0000E+00  0.5293E-04  0.0000E+00  0.0000E+00  0.0000E+00  0.0000E+00  0.0000E+00  0.5293E-04  0.0000E+00  0.0000E+00  0.0000E+00  0.0000E+00  0.0000E+00  0.0000E+00  0.0000E+00  0.0000E+00  0.0000E+00  0.0000E+00  0.0000E+00  0.0000E+00  0.0000E+00  0.0000E+00  0.0000E+00  0.0000E+00  0.0000E+00  0.0000E+00  0.0000E+00  0.0000E+00  0.0000E+00  0.0000E+00  0.0000E+00  0.0000E+00  0.0000E+00  0.0000E+00  0.0000E+00  0.1423E+02
REACH   44        0   1  1 2011   0.6536E+03  0.3795E-06  0.0000E+00  0.3795E-06  0.0000E+00  0.8972E-08  0.0000E+00  0.0000E+00  0.3279E-05  0.0000E+00  0.9836E-05  0.0000E+00  0.3282E-05  0.0000E+00  0.0000E+00  0.0000E+00  0.0000E+00  0.0000E+00  0.3282E-05  0.0000E+00  0.0000E+00  0.0000E+00  0.0000E+00  0.0000E+00  0.0000E+00  0.0000E+00  0.0000E+00  0.0000E+00  0.0000E+00  0.0000E+00  0.0000E+00  0.0000E+00  0.0000E+00  0.0000E+00  0.0000E+00  0.0000E+00  0.0000E+00  0.0000E+00  0.0000E+00  0.0000E+00  0.0000E+00  0.0000E+00  0.0000E+00  0.0000E+00  0.0000E+00  0.0000E+00  0.1423E+02
REACH   45        0   1  1 2011   0.3750E+03  0.4159E-05  0.0000E+00  0.4159E-05  0.0000E+00  0.1051E-07  0.0000E+00  0.0000E+00  0.3593E-04  0.0000E+00  0.1078E-03  0.0000E+00  0.3597E-04  0.0000E+00  0.0000E+00  0.0000E+00  0.0000E+00  0.0000E+00  0.3597E-04  0.0000E+00  0.0000E+00  0.0000E+00  0.0000E+00  0.0000E+00  0.0000E+00  0.0000E+00  0.0000E+00  0.0000E+00  0.0000E+00  0.0000E+00  0.0000E+00  0.0000E+00  0.0000E+00  0.0000E+00  0.0000E+00  0.0000E+00  0.0000E+00  0.0000E+00  0.0000E+00  0.0000E+00  0.0000E+00  0.0000E+00  0.0000E+00  0.0000E+00  0.0000E+00  0.0000E+00  0.1423E+02
REACH   46        0   1  1 2011   0.2973E+03  0.2762E-05  0.0000E+00  0.2762E-05  0.0000E+00  0.3551E-08  0.0000E+00  0.0000E+00  0.2387E-04  0.0000E+00  0.7160E-04  0.0000E+00  0.2390E-04  0.0000E+00  0.0000E+00  0.0000E+00  0.0000E+00  0.0000E+00  0.2390E-04  0.0000E+00  0.0000E+00  0.0000E+00  0.0000E+00  0.0000E+00  0.0000E+00  0.0000E+00  0.0000E+00  0.0000E+00  0.0000E+00  0.0000E+00  0.0000E+00  0.0000E+00  0.0000E+00  0.0000E+00  0.0000E+00  0.0000E+00  0.0000E+00  0.0000E+00  0.0000E+00  0.0000E+00  0.0000E+00  0.0000E+00  0.0000E+00  0.0000E+00  0.0000E+00  0.0000E+00  0.1640E+02
REACH   47        0   1  1 2011   0.1527E+05  0.1443E-04  0.0000E+00  0.1443E-04  0.0000E+00  0.1332E-07  0.0000E+00  0.0000E+00  0.1247E-03  0.0000E+00  0.3740E-03  0.0000E+00  0.1248E-03  0.0000E+00  0.0000E+00  0.0000E+00  0.0000E+00  0.0000E+00  0.1248E-03  0.0000E+00  0.0000E+00  0.0000E+00  0.0000E+00  0.0000E+00  0.0000E+00  0.0000E+00  0.0000E+00  0.0000E+00  0.0000E+00  0.0000E+00  0.0000E+00  0.0000E+00  0.0000E+00  0.0000E+00  0.0000E+00  0.0000E+00  0.0000E+00  0.0000E+00  0.0000E+00  0.0000E+00  0.0000E+00  0.0000E+00  0.0000E+00  0.0000E+00  0.0000E+00  0.0000E+00  0.1640E+02
REACH   48        0   1  1 2011   0.4402E+03  0.4652E-05  0.0000E+00  0.4652E-05  0.0000E+00  0.6618E-08  0.0000E+00  0.0000E+00  0.4019E-04  0.0000E+00  0.1206E-03  0.0000E+00  0.4023E-04  0.0000E+00  0.0000E+00  0.0000E+00  0.0000E+00  0.0000E+00  0.4023E-04  0.0000E+00  0.0000E+00  0.0000E+00  0.0000E+00  0.0000E+00  0.0000E+00  0.0000E+00  0.0000E+00  0.0000E+00  0.0000E+00  0.0000E+00  0.0000E+00  0.0000E+00  0.0000E+00  0.0000E+00  0.0000E+00  0.0000E+00  0.0000E+00  0.0000E+00  0.0000E+00  0.0000E+00  0.0000E+00  0.0000E+00  0.0000E+00  0.0000E+00  0.0000E+00  0.0000E+00  0.1640E+02
REACH   49        0   1  1 2011   0.7807E+04  0.1528E-04  0.0000E+00  0.1528E-04  0.0000E+00  0.7139E-08  0.0000E+00  0.0000E+00  0.1320E-03  0.0000E+00  0.3960E-03  0.0000E+00  0.1322E-03  0.0000E+00  0.0000E+00  0.0000E+00  0.0000E+00  0.0000E+00  0.1322E-03  0.0000E+00  0.0000E+00  0.0000E+00  0.0000E+00  0.0000E+00  0.0000E+00  0.0000E+00  0.0000E+00  0.0000E+00  0.0000E+00  0.0000E+00  0.0000E+00  0.0000E+00  0.0000E+00  0.0000E+00  0.0000E+00  0.0000E+00  0.0000E+00  0.0000E+00  0.0000E+00  0.0000E+00  0.0000E+00  0.0000E+00  0.0000E+00  0.0000E+00  0.0000E+00  0.0000E+00  0.1640E+02
REACH   50        0   1  1 2011   0.1278E+04  0.1101E+04  0.9381E+03  0.2527E+01  0.0000E+00  0.1000E-02  0.7291E-03  0.8996E-05  0.1117E-02  0.0000E+00  0.1352E-02  0.0000E+00  0.1118E-02  0.0000E+00  0.1000E-02  0.3662E+02  0.1000E-02  0.0000E+00  0.1118E-02  0.0000E+00  0.1000E-02  0.0000E+00  0.1000E-02  0.0000E+00  0.1000E-02  0.2431E+03  0.1000E-02  0.2109E-03  0.1000E-02  0.2109E-03  0.1395E-04  0.1683E-04  0.9846E-03  0.3338E-05 -0.2489E-05  0.7044E-04  0.6525E-04  0.1338E-02  0.1000E-02  0.1000E-02  0.1000E-02  0.1000E-02  0.1000E-02  0.3662E+02  0.0000E+00  0.0000E+00  0.1677E+02
REACH   51        0   1  1 2011   0.3235E+03  0.3361E-05  0.0000E+00  0.3361E-05  0.0000E+00  0.5765E-08  0.0000E+00  0.0000E+00  0.2904E-04  0.0000E+00  0.8711E-04  0.0000E+00  0.2907E-04  0.0000E+00  0.0000E+00  0.0000E+00  0.0000E+00  0.0000E+00  0.2907E-04  0.0000E+00  0.0000E+00  0.0000E+00  0.0000E+00  0.0000E+00  0.0000E+00  0.0000E+00  0.0000E+00  0.0000E+00  0.0000E+00  0.0000E+00  0.0000E+00  0.0000E+00  0.0000E+00  0.0000E+00  0.0000E+00  0.0000E+00  0.0000E+00  0.0000E+00  0.0000E+00  0.0000E+00  0.0000E+00  0.0000E+00  0.0000E+00  0.0000E+00  0.0000E+00  0.0000E+00  0.1677E+02
REACH   52        0   1  1 2011   0.5348E+03  0.5586E-05  0.0000E+00  0.5586E-05  0.0000E+00  0.7583E-08  0.0000E+00  0.0000E+00  0.4826E-04  0.0000E+00  0.1448E-03  0.0000E+00  0.4831E-04  0.0000E+00  0.0000E+00  0.0000E+00  0.0000E+00  0.0000E+00  0.4831E-04  0.0000E+00  0.0000E+00  0.0000E+00  0.0000E+00  0.0000E+00  0.0000E+00  0.0000E+00  0.0000E+00  0.0000E+00  0.0000E+00  0.0000E+00  0.0000E+00  0.0000E+00  0.0000E+00  0.0000E+00  0.0000E+00  0.0000E+00  0.0000E+00  0.0000E+00  0.0000E+00  0.0000E+00  0.0000E+00  0.0000E+00  0.0000E+00  0.0000E+00  0.0000E+00  0.0000E+00  0.1677E+02
REACH   53        0   1  1 2011   0.5632E+03  0.6351E-05  0.0000E+00  0.6351E-05  0.0000E+00  0.1454E-07  0.0000E+00  0.0000E+00  0.5487E-04  0.0000E+00  0.1646E-03  0.0000E+00  0.5493E-04  0.0000E+00  0.0000E+00  0.0000E+00  0.0000E+00  0.0000E+00  0.5493E-04  0.0000E+00  0.0000E+00  0.0000E+00  0.0000E+00  0.0000E+00  0.0000E+00  0.0000E+00  0.0000E+00  0.0000E+00  0.0000E+00  0.0000E+00  0.0000E+00  0.0000E+00  0.0000E+00  0.0000E+00  0.0000E+00  0.0000E+00  0.0000E+00  0.0000E+00  0.0000E+00  0.0000E+00  0.0000E+00  0.0000E+00  0.0000E+00  0.0000E+00  0.0000E+00  0.0000E+00  0.1677E+02
REACH   54        0   1  1 2011   0.1087E+05  0.4592E-05  0.0000E+00  0.4592E-05  0.0000E+00  0.3800E-08  0.0000E+00  0.0000E+00  0.3967E-04  0.0000E+00  0.1190E-03  0.0000E+00  0.3972E-04  0.0000E+00  0.0000E+00  0.0000E+00  0.0000E+00  0.0000E+00  0.3972E-04  0.0000E+00  0.0000E+00  0.0000E+00  0.0000E+00  0.0000E+00  0.0000E+00  0.0000E+00  0.0000E+00  0.0000E+00  0.0000E+00  0.0000E+00  0.0000E+00  0.0000E+00  0.0000E+00  0.0000E+00  0.0000E+00  0.0000E+00  0.0000E+00  0.0000E+00  0.0000E+00  0.0000E+00  0.0000E+00  0.0000E+00  0.0000E+00  0.0000E+00  0.0000E+00  0.0000E+00  0.1606E+02
REACH   55        0   1  1 2011   0.7512E+03  0.6184E-05  0.0000E+00  0.6184E-05  0.0000E+00  0.3299E-08  0.0000E+00  0.0000E+00  0.5343E-04  0.0000E+00  0.1603E-03  0.0000E+00  0.5351E-04  0.0000E+00  0.0000E+00  0.0000E+00  0.0000E+00  0.0000E+00  0.5351E-04  0.0000E+00  0.0000E+00  0.0000E+00  0.0000E+00  0.0000E+00  0.0000E+00  0.0000E+00  0.0000E+00  0.0000E+00  0.0000E+00  0.0000E+00  0.0000E+00  0.0000E+00  0.0000E+00  0.0000E+00  0.0000E+00  0.0000E+00  0.0000E+00  0.0000E+00  0.0000E+00  0.0000E+00  0.0000E+00  0.0000E+00  0.0000E+00  0.0000E+00  0.0000E+00  0.0000E+00  0.1606E+02
REACH   56        0   1  1 2011   0.6762E+03  0.7372E-05  0.0000E+00  0.7372E-05  0.0000E+00  0.7766E-08  0.0000E+00  0.0000E+00  0.6370E-04  0.0000E+00  0.1911E-03  0.0000E+00  0.6376E-04  0.0000E+00  0.0000E+00  0.0000E+00  0.0000E+00  0.0000E+00  0.6376E-04  0.0000E+00  0.0000E+00  0.0000E+00  0.0000E+00  0.0000E+00  0.0000E+00  0.0000E+00  0.0000E+00  0.0000E+00  0.0000E+00  0.0000E+00  0.0000E+00  0.0000E+00  0.0000E+00  0.0000E+00  0.0000E+00  0.0000E+00  0.0000E+00  0.0000E+00  0.0000E+00  0.0000E+00  0.0000E+00  0.0000E+00  0.0000E+00  0.0000E+00  0.0000E+00  0.0000E+00  0.1606E+02
REACH   57        0   1  1 2011   0.1697E+05  0.9381E+03  0.9372E+03  0.8509E+00  0.0000E+00  0.7291E-03  0.7291E-03  0.9004E-05  0.3457E-04  0.0000E+00  0.1037E-03  0.0000E+00  0.3461E-04  0.0000E+00  0.3662E+02  0.4995E+02  0.0000E+00  0.0000E+00  0.3461E-04  0.0000E+00  0.0000E+00  0.0000E+00  0.0000E+00  0.0000E+00  0.2431E+03  0.7288E+03  0.2109E-03  0.5212E-04  0.2109E-03  0.5212E-04  0.2943E-05  0.5237E-05  0.2069E-03  0.1034E-05 -0.7692E-06  0.1479E-04  0.1367E-04  0.2809E-03  0.1000E-02  0.1000E-02  0.1000E-02  0.1000E-02  0.1000E-02  0.4995E+02  0.0000E+00  0.0000E+00  0.1606E+02
REACH   58        0   1  1 2011   0.3397E+03  0.3468E-05  0.0000E+00  0.3468E-05  0.0000E+00  0.5724E-08  0.0000E+00  0.0000E+00  0.2996E-04  0.0000E+00  0.8988E-04  0.0000E+00  0.3000E-04  0.0000E+00  0.0000E+00  0.0000E+00  0.0000E+00  0.0000E+00  0.3000E-04  0.0000E+00  0.0000E+00  0.0000E+00  0.0000E+00  0.0000E+00  0.0000E+00  0.0000E+00  0.0000E+00  0.0000E+00  0.0000E+00  0.0000E+00  0.0000E+00  0.0000E+00  0.0000E+00  0.0000E+00  0.0000E+00  0.0000E+00  0.0000E+00  0.0000E+00  0.0000E+00  0.0000E+00  0.0000E+00  0.0000E+00  0.0000E+00  0.0000E+00  0.0000E+00  0.0000E+00  0.1606E+02
REACH   59        0   1  1 2011   0.4352E+03  0.4773E-05  0.0000E+00  0.4773E-05  0.0000E+00  0.6613E-08  0.0000E+00  0.0000E+00  0.4124E-04  0.0000E+00  0.1237E-03  0.0000E+00  0.4128E-04  0.0000E+00  0.0000E+00  0.0000E+00  0.0000E+00  0.0000E+00  0.4128E-04  0.0000E+00  0.0000E+00  0.0000E+00  0.0000E+00  0.0000E+00  0.0000E+00  0.0000E+00  0.0000E+00  0.0000E+00  0.0000E+00  0.0000E+00  0.0000E+00  0.0000E+00  0.0000E+00  0.0000E+00  0.0000E+00  0.0000E+00  0.0000E+00  0.0000E+00  0.0000E+00  0.0000E+00  0.0000E+00  0.0000E+00  0.0000E+00  0.0000E+00  0.0000E+00  0.0000E+00  0.1606E+02
REACH   60        0   1  1 2011   0.9705E+03  0.1156E-06  0.0000E+00  0.1156E-06  0.0000E+00  0.6452E-08  0.0000E+00  0.0000E+00  0.9991E-06  0.0000E+00  0.2997E-05  0.0000E+00  0.1000E-05  0.0000E+00  0.0000E+00  0.0000E+00  0.0000E+00  0.0000E+00  0.1000E-05  0.0000E+00  0.0000E+00  0.0000E+00  0.0000E+00  0.0000E+00  0.0000E+00  0.0000E+00  0.0000E+00  0.0000E+00  0.0000E+00  0.0000E+00  0.0000E+00  0.0000E+00  0.0000E+00  0.0000E+00  0.0000E+00  0.0000E+00  0.0000E+00  0.0000E+00  0.0000E+00  0.0000E+00  0.0000E+00  0.0000E+00  0.0000E+00  0.0000E+00  0.0000E+00  0.0000E+00  0.1640E+02
REACH   61        0   1  1 2011   0.2940E+03  0.3074E-05  0.0000E+00  0.3074E-05  0.0000E+00  0.5806E-08  0.0000E+00  0.0000E+00  0.2656E-04  0.0000E+00  0.7967E-04  0.0000E+00  0.2659E-04  0.0000E+00  0.0000E+00  0.0000E+00  0.0000E+00  0.0000E+00  0.2659E-04  0.0000E+00  0.0000E+00  0.0000E+00  0.0000E+00  0.0000E+00  0.0000E+00  0.0000E+00  0.0000E+00  0.0000E+00  0.0000E+00  0.0000E+00  0.0000E+00  0.0000E+00  0.0000E+00  0.0000E+00  0.0000E+00  0.0000E+00  0.0000E+00  0.0000E+00  0.0000E+00  0.0000E+00  0.0000E+00  0.0000E+00  0.0000E+00  0.0000E+00  0.0000E+00  0.0000E+00  0.1640E+02
REACH   62        0   1  1 2011   0.3868E+03  0.4025E-05  0.0000E+00  0.4025E-05  0.0000E+00  0.5818E-08  0.0000E+00  0.0000E+00  0.3478E-04  0.0000E+00  0.1043E-03  0.0000E+00  0.3482E-04  0.0000E+00  0.0000E+00  0.0000E+00  0.0000E+00  0.0000E+00  0.3482E-04  0.0000E+00  0.0000E+00  0.0000E+00  0.0000E+00  0.0000E+00  0.0000E+00  0.0000E+00  0.0000E+00  0.0000E+00  0.0000E+00  0.0000E+00  0.0000E+00  0.0000E+00  0.0000E+00  0.0000E+00  0.0000E+00  0.0000E+00  0.0000E+00  0.0000E+00  0.0000E+00  0.0000E+00  0.0000E+00  0.0000E+00  0.0000E+00  0.0000E+00  0.0000E+00  0.0000E+00  0.1640E+02
REACH   63        0   1  1 2011   0.1190E+05  0.2865E-05  0.0000E+00  0.2865E-05  0.0000E+00  0.1837E-08  0.0000E+00  0.0000E+00  0.2476E-04  0.0000E+00  0.7427E-04  0.0000E+00  0.2478E-04  0.0000E+00  0.0000E+00  0.0000E+00  0.0000E+00  0.0000E+00  0.2478E-04  0.0000E+00  0.0000E+00  0.0000E+00  0.0000E+00  0.0000E+00  0.0000E+00  0.0000E+00  0.0000E+00  0.0000E+00  0.0000E+00  0.0000E+00  0.0000E+00  0.0000E+00  0.0000E+00  0.0000E+00  0.0000E+00  0.0000E+00  0.0000E+00  0.0000E+00  0.0000E+00  0.0000E+00  0.0000E+00  0.0000E+00  0.0000E+00  0.0000E+00  0.0000E+00  0.0000E+00  0.1640E+02
REACH   64        0   1  1 2011   0.6658E+03  0.5650E-05  0.0000E+00  0.5650E-05  0.0000E+00  0.3422E-08  0.0000E+00  0.0000E+00  0.4882E-04  0.0000E+00  0.1465E-03  0.0000E+00  0.4888E-04  0.0000E+00  0.0000E+00  0.0000E+00  0.0000E+00  0.0000E+00  0.4888E-04  0.0000E+00  0.0000E+00  0.0000E+00  0.0000E+00  0.0000E+00  0.0000E+00  0.0000E+00  0.0000E+00  0.0000E+00  0.0000E+00  0.0000E+00  0.0000E+00  0.0000E+00  0.0000E+00  0.0000E+00  0.0000E+00  0.0000E+00  0.0000E+00  0.0000E+00  0.0000E+00  0.0000E+00  0.0000E+00  0.0000E+00  0.0000E+00  0.0000E+00  0.0000E+00  0.0000E+00  0.1640E+02
REACH   65        0   1  1 2011   0.1659E+04  0.2671E-05  0.0000E+00  0.2671E-05  0.0000E+00  0.3817E-08  0.0000E+00  0.0000E+00  0.2308E-04  0.0000E+00  0.6923E-04  0.0000E+00  0.2310E-04  0.0000E+00  0.0000E+00  0.0000E+00  0.0000E+00  0.0000E+00  0.2310E-04  0.0000E+00  0.0000E+00  0.0000E+00  0.0000E+00  0.0000E+00  0.0000E+00  0.0000E+00  0.0000E+00  0.0000E+00  0.0000E+00  0.0000E+00  0.0000E+00  0.0000E+00  0.0000E+00  0.0000E+00  0.0000E+00  0.0000E+00  0.0000E+00  0.0000E+00  0.0000E+00  0.0000E+00  0.0000E+00  0.0000E+00  0.0000E+00  0.0000E+00  0.0000E+00  0.0000E+00  0.1640E+02
REACH   66        0   1  1 2011   0.1768E+05  0.9372E+03  0.9362E+03  0.9894E+00  0.0000E+00  0.7291E-03  0.7291E-03  0.9014E-05  0.3659E-04  0.0000E+00  0.1098E-03  0.0000E+00  0.3663E-04  0.0000E+00  0.4995E+02  0.6619E+02  0.0000E+00  0.0000E+00  0.3663E-04  0.0000E+00  0.0000E+00  0.0000E+00  0.0000E+00  0.0000E+00  0.7288E+03  0.2184E+04  0.5212E-04  0.1288E-04  0.5212E-04  0.1288E-04  0.7271E-06  0.1150E-05  0.5118E-04  0.2275E-06 -0.1693E-06  0.3659E-05  0.3385E-05  0.6952E-04  0.1000E-02  0.1000E-02  0.1000E-02  0.1000E-02  0.1000E-02  0.6619E+02  0.0000E+00  0.0000E+00  0.1666E+02
REACH   67        0   1  1 2011   0.1546E+05  0.2283E-05  0.0000E+00  0.2283E-05  0.0000E+00  0.3828E-08  0.0000E+00  0.0000E+00  0.1973E-04  0.0000E+00  0.5918E-04  0.0000E+00  0.1975E-04  0.0000E+00  0.0000E+00  0.0000E+00  0.0000E+00  0.0000E+00  0.1975E-04  0.0000E+00  0.0000E+00  0.0000E+00  0.0000E+00  0.0000E+00  0.0000E+00  0.0000E+00  0.0000E+00  0.0000E+00  0.0000E+00  0.0000E+00  0.0000E+00  0.0000E+00  0.0000E+00  0.0000E+00  0.0000E+00  0.0000E+00  0.0000E+00  0.0000E+00  0.0000E+00  0.0000E+00  0.0000E+00  0.0000E+00  0.0000E+00  0.0000E+00  0.0000E+00  0.0000E+00  0.1666E+02
REACH   68        0   1  1 2011   0.2104E+04  0.6514E-05  0.0000E+00  0.6514E-05  0.0000E+00  0.3335E-08  0.0000E+00  0.0000E+00  0.5628E-04  0.0000E+00  0.1689E-03  0.0000E+00  0.5637E-04  0.0000E+00  0.0000E+00  0.0000E+00  0.0000E+00  0.0000E+00  0.5637E-04  0.0000E+00  0.0000E+00  0.0000E+00  0.0000E+00  0.0000E+00  0.0000E+00  0.0000E+00  0.0000E+00  0.0000E+00  0.0000E+00  0.0000E+00  0.0000E+00  0.0000E+00  0.0000E+00  0.0000E+00  0.0000E+00  0.0000E+00  0.0000E+00  0.0000E+00  0.0000E+00  0.0000E+00  0.0000E+00  0.0000E+00  0.0000E+00  0.0000E+00  0.0000E+00  0.0000E+00  0.1640E+02
REACH   69        0   1  1 2011   0.3336E+04  0.4682E-05  0.0000E+00  0.4682E-05  0.0000E+00  0.1548E-08  0.0000E+00  0.0000E+00  0.4045E-04  0.0000E+00  0.1214E-03  0.0000E+00  0.4052E-04  0.0000E+00  0.0000E+00  0.0000E+00  0.0000E+00  0.0000E+00  0.4052E-04  0.0000E+00  0.0000E+00  0.0000E+00  0.0000E+00  0.0000E+00  0.0000E+00  0.0000E+00  0.0000E+00  0.0000E+00  0.0000E+00  0.0000E+00  0.0000E+00  0.0000E+00  0.0000E+00  0.0000E+00  0.0000E+00  0.0000E+00  0.0000E+00  0.0000E+00  0.0000E+00  0.0000E+00  0.0000E+00  0.0000E+00  0.0000E+00  0.0000E+00  0.0000E+00  0.0000E+00  0.1640E+02
REACH   70        0   1  1 2011   0.1048E+04  0.9661E-05  0.0000E+00  0.9661E-05  0.0000E+00  0.3397E-08  0.0000E+00  0.0000E+00  0.8347E-04  0.0000E+00  0.2504E-03  0.0000E+00  0.8358E-04  0.0000E+00  0.0000E+00  0.0000E+00  0.0000E+00  0.0000E+00  0.8358E-04  0.0000E+00  0.0000E+00  0.0000E+00  0.0000E+00  0.0000E+00  0.0000E+00  0.0000E+00  0.0000E+00  0.0000E+00  0.0000E+00  0.0000E+00  0.0000E+00  0.0000E+00  0.0000E+00  0.0000E+00  0.0000E+00  0.0000E+00  0.0000E+00  0.0000E+00  0.0000E+00  0.0000E+00  0.0000E+00  0.0000E+00  0.0000E+00  0.0000E+00  0.0000E+00  0.0000E+00  0.1625E+02
REACH   71        0   1  1 2011   0.5872E+03  0.5832E-05  0.0000E+00  0.5832E-05  0.0000E+00  0.5503E-08  0.0000E+00  0.0000E+00  0.5039E-04  0.0000E+00  0.1512E-03  0.0000E+00  0.5045E-04  0.0000E+00  0.0000E+00  0.0000E+00  0.0000E+00  0.0000E+00  0.5045E-04  0.0000E+00  0.0000E+00  0.0000E+00  0.0000E+00  0.0000E+00  0.0000E+00  0.0000E+00  0.0000E+00  0.0000E+00  0.0000E+00  0.0000E+00  0.0000E+00  0.0000E+00  0.0000E+00  0.0000E+00  0.0000E+00  0.0000E+00  0.0000E+00  0.0000E+00  0.0000E+00  0.0000E+00  0.0000E+00  0.0000E+00  0.0000E+00  0.0000E+00  0.0000E+00  0.0000E+00  0.1625E+02
REACH   72        0   1  1 2011   0.1798E+05  0.3431E-05  0.0000E+00  0.3431E-05  0.0000E+00  0.3449E-08  0.0000E+00  0.0000E+00  0.2964E-04  0.0000E+00  0.8892E-04  0.0000E+00  0.2968E-04  0.0000E+00  0.0000E+00  0.0000E+00  0.0000E+00  0.0000E+00  0.2968E-04  0.0000E+00  0.0000E+00  0.0000E+00  0.0000E+00  0.0000E+00  0.0000E+00  0.0000E+00  0.0000E+00  0.0000E+00  0.0000E+00  0.0000E+00  0.0000E+00  0.0000E+00  0.0000E+00  0.0000E+00  0.0000E+00  0.0000E+00  0.0000E+00  0.0000E+00  0.0000E+00  0.0000E+00  0.0000E+00  0.0000E+00  0.0000E+00  0.0000E+00  0.0000E+00  0.0000E+00  0.1625E+02
REACH   73        0   1  1 2011   0.3073E+03  0.3048E-05  0.0000E+00  0.3048E-05  0.0000E+00  0.3669E-08  0.0000E+00  0.0000E+00  0.2633E-04  0.0000E+00  0.7900E-04  0.0000E+00  0.2637E-04  0.0000E+00  0.0000E+00  0.0000E+00  0.0000E+00  0.0000E+00  0.2637E-04  0.0000E+00  0.0000E+00  0.0000E+00  0.0000E+00  0.0000E+00  0.0000E+00  0.0000E+00  0.0000E+00  0.0000E+00  0.0000E+00  0.0000E+00  0.0000E+00  0.0000E+00  0.0000E+00  0.0000E+00  0.0000E+00  0.0000E+00  0.0000E+00  0.0000E+00  0.0000E+00  0.0000E+00  0.0000E+00  0.0000E+00  0.0000E+00  0.0000E+00  0.0000E+00  0.0000E+00  0.1625E+02
REACH   74        0   1  1 2011   0.1070E+04  0.1033E-04  0.0000E+00  0.1033E-04  0.0000E+00  0.1237E-07  0.0000E+00  0.0000E+00  0.8922E-04  0.0000E+00  0.2677E-03  0.0000E+00  0.8933E-04  0.0000E+00  0.0000E+00  0.0000E+00  0.0000E+00  0.0000E+00  0.8933E-04  0.0000E+00  0.0000E+00  0.0000E+00  0.0000E+00  0.0000E+00  0.0000E+00  0.0000E+00  0.0000E+00  0.0000E+00  0.0000E+00  0.0000E+00  0.0000E+00  0.0000E+00  0.0000E+00  0.0000E+00  0.0000E+00  0.0000E+00  0.0000E+00  0.0000E+00  0.0000E+00  0.0000E+00  0.0000E+00  0.0000E+00  0.0000E+00  0.0000E+00  0.0000E+00  0.0000E+00  0.1505E+02
REACH   75        0   1  1 2011   0.1068E+04  0.1169E-04  0.0000E+00  0.1169E-04  0.0000E+00  0.1165E-07  0.0000E+00  0.0000E+00  0.1010E-03  0.0000E+00  0.3029E-03  0.0000E+00  0.1011E-03  0.0000E+00  0.0000E+00  0.0000E+00  0.0000E+00  0.0000E+00  0.1011E-03  0.0000E+00  0.0000E+00  0.0000E+00  0.0000E+00  0.0000E+00  0.0000E+00  0.0000E+00  0.0000E+00  0.0000E+00  0.0000E+00  0.0000E+00  0.0000E+00  0.0000E+00  0.0000E+00  0.0000E+00  0.0000E+00  0.0000E+00  0.0000E+00  0.0000E+00  0.0000E+00  0.0000E+00  0.0000E+00  0.0000E+00  0.0000E+00  0.0000E+00  0.0000E+00  0.0000E+00  0.1505E+02
REACH   76        0   1  1 2011   0.1965E+05  0.9362E+03  0.9348E+03  0.1441E+01  0.0000E+00  0.7292E-03  0.7292E-03  0.9028E-05  0.3048E-04  0.0000E+00  0.9143E-04  0.0000E+00  0.3051E-04  0.0000E+00  0.6619E+02  0.8624E+02  0.0000E+00  0.1550E+00  0.3051E-04  0.0000E+00  0.0000E+00  0.0000E+00  0.0000E+00  0.0000E+00  0.2184E+04  0.6542E+04  0.1288E-04  0.3184E-05  0.1288E-04  0.3184E-05  0.1797E-06  0.2326E-06  0.1267E-04  0.4609E-07 -0.3436E-07  0.9066E-06  0.8396E-06  0.1722E-04  0.1000E-02  0.1000E-02  0.1000E-02  0.1000E-02  0.1000E-02  0.8639E+02  0.0000E+00  0.0000E+00  0.1505E+02
REACH   77        0   1  1 2011   0.1468E+04  0.2029E-06  0.0000E+00  0.2029E-06  0.0000E+00  0.5968E-08  0.0000E+00  0.0000E+00  0.1753E-05  0.0000E+00  0.5260E-05  0.0000E+00  0.1755E-05  0.0000E+00  0.0000E+00  0.0000E+00  0.0000E+00  0.0000E+00  0.1755E-05  0.0000E+00  0.0000E+00  0.0000E+00  0.0000E+00  0.0000E+00  0.0000E+00  0.0000E+00  0.0000E+00  0.0000E+00  0.0000E+00  0.0000E+00  0.0000E+00  0.0000E+00  0.0000E+00  0.0000E+00  0.0000E+00  0.0000E+00  0.0000E+00  0.0000E+00  0.0000E+00  0.0000E+00  0.0000E+00  0.0000E+00  0.0000E+00  0.0000E+00  0.0000E+00  0.0000E+00  0.1505E+02
REACH   78        0   1  1 2011   0.2912E+03  0.3027E-05  0.0000E+00  0.3027E-05  0.0000E+00  0.7718E-08  0.0000E+00  0.0000E+00  0.2615E-04  0.0000E+00  0.7845E-04  0.0000E+00  0.2618E-04  0.0000E+00  0.0000E+00  0.0000E+00  0.0000E+00  0.0000E+00  0.2618E-04  0.0000E+00  0.0000E+00  0.0000E+00  0.0000E+00  0.0000E+00  0.0000E+00  0.0000E+00  0.0000E+00  0.0000E+00  0.0000E+00  0.0000E+00  0.0000E+00  0.0000E+00  0.0000E+00  0.0000E+00  0.0000E+00  0.0000E+00  0.0000E+00  0.0000E+00  0.0000E+00  0.0000E+00  0.0000E+00  0.0000E+00  0.0000E+00  0.0000E+00  0.0000E+00  0.0000E+00  0.1505E+02
REACH   79        0   1  1 2011   0.2080E+05  0.9348E+03  0.9344E+03  0.3536E+00  0.0000E+00  0.7292E-03  0.7292E-03  0.9032E-05  0.7649E-05  0.0000E+00  0.2295E-04  0.0000E+00  0.7657E-05  0.0000E+00  0.8624E+02  0.9114E+02  0.1550E+00  0.2677E+00  0.7657E-05  0.0000E+00  0.0000E+00  0.0000E+00  0.0000E+00  0.0000E+00  0.6542E+04  0.1962E+05  0.3184E-05  0.7872E-06  0.3184E-05  0.7872E-06  0.4442E-07  0.7527E-07  0.3124E-05  0.1488E-07 -0.1107E-07  0.2233E-06  0.2065E-06  0.4243E-05  0.1000E-02  0.1000E-02  0.1000E-02  0.1000E-02  0.1000E-02  0.9140E+02  0.0000E+00  0.0000E+00  0.1505E+02
REACH   80        0   1  1 2011   0.2300E+04  0.2968E-05  0.0000E+00  0.2968E-05  0.0000E+00  0.2753E-08  0.0000E+00  0.0000E+00  0.2564E-04  0.0000E+00  0.7693E-04  0.0000E+00  0.2567E-04  0.0000E+00  0.0000E+00  0.0000E+00  0.0000E+00  0.0000E+00  0.2567E-04  0.0000E+00  0.0000E+00  0.0000E+00  0.0000E+00  0.0000E+00  0.0000E+00  0.0000E+00  0.0000E+00  0.0000E+00  0.0000E+00  0.0000E+00  0.0000E+00  0.0000E+00  0.0000E+00  0.0000E+00  0.0000E+00  0.0000E+00  0.0000E+00  0.0000E+00  0.0000E+00  0.0000E+00  0.0000E+00  0.0000E+00  0.0000E+00  0.0000E+00  0.0000E+00  0.0000E+00  0.1505E+02
REACH   81        0   1  1 2011   0.1742E+04  0.1198E-05  0.0000E+00  0.1198E-05  0.0000E+00  0.5904E-08  0.0000E+00  0.0000E+00  0.1035E-04  0.0000E+00  0.3105E-04  0.0000E+00  0.1036E-04  0.0000E+00  0.0000E+00  0.0000E+00  0.0000E+00  0.0000E+00  0.1036E-04  0.0000E+00  0.0000E+00  0.0000E+00  0.0000E+00  0.0000E+00  0.0000E+00  0.0000E+00  0.0000E+00  0.0000E+00  0.0000E+00  0.0000E+00  0.0000E+00  0.0000E+00  0.0000E+00  0.0000E+00  0.0000E+00  0.0000E+00  0.0000E+00  0.0000E+00  0.0000E+00  0.0000E+00  0.0000E+00  0.0000E+00  0.0000E+00  0.0000E+00  0.0000E+00  0.0000E+00  0.1505E+02
REACH   82        0   1  1 2011   0.1031E+04  0.7121E-05  0.0000E+00  0.7121E-05  0.0000E+00  0.2843E-08  0.0000E+00  0.0000E+00  0.6153E-04  0.0000E+00  0.1846E-03  0.0000E+00  0.6163E-04  0.0000E+00  0.0000E+00  0.0000E+00  0.0000E+00  0.0000E+00  0.6163E-04  0.0000E+00  0.0000E+00  0.0000E+00  0.0000E+00  0.0000E+00  0.0000E+00  0.0000E+00  0.0000E+00  0.0000E+00  0.0000E+00  0.0000E+00  0.0000E+00  0.0000E+00  0.0000E+00  0.0000E+00  0.0000E+00  0.0000E+00  0.0000E+00  0.0000E+00  0.0000E+00  0.0000E+00  0.0000E+00  0.0000E+00  0.0000E+00  0.0000E+00  0.0000E+00  0.0000E+00  0.1505E+02
REACH   83        0   1  1 2011   0.3827E+03  0.4337E-05  0.0000E+00  0.4337E-05  0.0000E+00  0.1285E-07  0.0000E+00  0.0000E+00  0.3747E-04  0.0000E+00  0.1124E-03  0.0000E+00  0.3751E-04  0.0000E+00  0.0000E+00  0.0000E+00  0.0000E+00  0.0000E+00  0.3751E-04  0.0000E+00  0.0000E+00  0.0000E+00  0.0000E+00  0.0000E+00  0.0000E+00  0.0000E+00  0.0000E+00  0.0000E+00  0.0000E+00  0.0000E+00  0.0000E+00  0.0000E+00  0.0000E+00  0.0000E+00  0.0000E+00  0.0000E+00  0.0000E+00  0.0000E+00  0.0000E+00  0.0000E+00  0.0000E+00  0.0000E+00  0.0000E+00  0.0000E+00  0.0000E+00  0.0000E+00  0.1505E+02
REACH   84        0   1  1 2011   0.2841E+04  0.1619E-06  0.0000E+00  0.1619E-06  0.0000E+00  0.7996E-08  0.0000E+00  0.0000E+00  0.1398E-05  0.0000E+00  0.4195E-05  0.0000E+00  0.1400E-05  0.0000E+00  0.0000E+00  0.0000E+00  0.0000E+00  0.0000E+00  0.1400E-05  0.0000E+00  0.0000E+00  0.0000E+00  0.0000E+00  0.0000E+00  0.0000E+00  0.0000E+00  0.0000E+00  0.0000E+00  0.0000E+00  0.0000E+00  0.0000E+00  0.0000E+00  0.0000E+00  0.0000E+00  0.0000E+00  0.0000E+00  0.0000E+00  0.0000E+00  0.0000E+00  0.0000E+00  0.0000E+00  0.0000E+00  0.0000E+00  0.0000E+00  0.0000E+00  0.0000E+00  0.1505E+02
REACH   85        0   1  1 2011   0.4008E+03  0.3202E-05  0.0000E+00  0.3202E-05  0.0000E+00  0.3412E-08  0.0000E+00  0.0000E+00  0.2766E-04  0.0000E+00  0.8299E-04  0.0000E+00  0.2770E-04  0.0000E+00  0.0000E+00  0.0000E+00  0.0000E+00  0.0000E+00  0.2770E-04  0.0000E+00  0.0000E+00  0.0000E+00  0.0000E+00  0.0000E+00  0.0000E+00  0.0000E+00  0.0000E+00  0.0000E+00  0.0000E+00  0.0000E+00  0.0000E+00  0.0000E+00  0.0000E+00  0.0000E+00  0.0000E+00  0.0000E+00  0.0000E+00  0.0000E+00  0.0000E+00  0.0000E+00  0.0000E+00  0.0000E+00  0.0000E+00  0.0000E+00  0.0000E+00  0.0000E+00  0.1505E+02
REACH   86        0   1  1 2011   0.1862E+05  0.2690E-05  0.0000E+00  0.2690E-05  0.0000E+00  0.1568E-08  0.0000E+00  0.0000E+00  0.2324E-04  0.0000E+00  0.6972E-04  0.0000E+00  0.2327E-04  0.0000E+00  0.0000E+00  0.0000E+00  0.0000E+00  0.0000E+00  0.2327E-04  0.0000E+00  0.0000E+00  0.0000E+00  0.0000E+00  0.0000E+00  0.0000E+00  0.0000E+00  0.0000E+00  0.0000E+00  0.0000E+00  0.0000E+00  0.0000E+00  0.0000E+00  0.0000E+00  0.0000E+00  0.0000E+00  0.0000E+00  0.0000E+00  0.0000E+00  0.0000E+00  0.0000E+00  0.0000E+00  0.0000E+00  0.0000E+00  0.0000E+00  0.0000E+00  0.0000E+00  0.1505E+02
REACH   87        0   1  1 2011   0.7321E+03  0.7841E-07  0.0000E+00  0.7841E-07  0.0000E+00  0.1998E-08  0.0000E+00  0.0000E+00  0.6774E-06  0.0000E+00  0.2032E-05  0.0000E+00  0.6781E-06  0.0000E+00  0.0000E+00  0.0000E+00  0.0000E+00  0.0000E+00  0.6781E-06  0.0000E+00  0.0000E+00  0.0000E+00  0.0000E+00  0.0000E+00  0.0000E+00  0.0000E+00  0.0000E+00  0.0000E+00  0.0000E+00  0.0000E+00  0.0000E+00  0.0000E+00  0.0000E+00  0.0000E+00  0.0000E+00  0.0000E+00  0.0000E+00  0.0000E+00  0.0000E+00  0.0000E+00  0.0000E+00  0.0000E+00  0.0000E+00  0.0000E+00  0.0000E+00  0.0000E+00  0.1505E+02
REACH   88        0   1  1 2011   0.3245E+03  0.3301E-05  0.0000E+00  0.3301E-05  0.0000E+00  0.3706E-08  0.0000E+00  0.0000E+00  0.2852E-04  0.0000E+00  0.8555E-04  0.0000E+00  0.2855E-04  0.0000E+00  0.0000E+00  0.0000E+00  0.0000E+00  0.0000E+00  0.2855E-04  0.0000E+00  0.0000E+00  0.0000E+00  0.0000E+00  0.0000E+00  0.0000E+00  0.0000E+00  0.0000E+00  0.0000E+00  0.0000E+00  0.0000E+00  0.0000E+00  0.0000E+00  0.0000E+00  0.0000E+00  0.0000E+00  0.0000E+00  0.0000E+00  0.0000E+00  0.0000E+00  0.0000E+00  0.0000E+00  0.0000E+00  0.0000E+00  0.0000E+00  0.0000E+00  0.0000E+00  0.1505E+02
REACH   89        0   1  1 2011   0.4550E+03  0.4159E-05  0.0000E+00  0.4159E-05  0.0000E+00  0.3468E-08  0.0000E+00  0.0000E+00  0.3593E-04  0.0000E+00  0.1078E-03  0.0000E+00  0.3598E-04  0.0000E+00  0.0000E+00  0.0000E+00  0.0000E+00  0.0000E+00  0.3598E-04  0.0000E+00  0.0000E+00  0.0000E+00  0.0000E+00  0.0000E+00  0.0000E+00  0.0000E+00  0.0000E+00  0.0000E+00  0.0000E+00  0.0000E+00  0.0000E+00  0.0000E+00  0.0000E+00  0.0000E+00  0.0000E+00  0.0000E+00  0.0000E+00  0.0000E+00  0.0000E+00  0.0000E+00  0.0000E+00  0.0000E+00  0.0000E+00  0.0000E+00  0.0000E+00  0.0000E+00  0.1505E+02
REACH   90        0   1  1 2011   0.2892E+03  0.2660E-05  0.0000E+00  0.2660E-05  0.0000E+00  0.1679E-08  0.0000E+00  0.0000E+00  0.2298E-04  0.0000E+00  0.6895E-04  0.0000E+00  0.2301E-04  0.0000E+00  0.0000E+00  0.0000E+00  0.0000E+00  0.0000E+00  0.2301E-04  0.0000E+00  0.0000E+00  0.0000E+00  0.0000E+00  0.0000E+00  0.0000E+00  0.0000E+00  0.0000E+00  0.0000E+00  0.0000E+00  0.0000E+00  0.0000E+00  0.0000E+00  0.0000E+00  0.0000E+00  0.0000E+00  0.0000E+00  0.0000E+00  0.0000E+00  0.0000E+00  0.0000E+00  0.0000E+00  0.0000E+00  0.0000E+00  0.0000E+00  0.0000E+00  0.0000E+00  0.1505E+02
REACH   91        0   1  1 2011   0.1711E+04  0.4831E-05  0.0000E+00  0.4831E-05  0.0000E+00  0.7631E-08  0.0000E+00  0.0000E+00  0.4174E-04  0.0000E+00  0.1252E-03  0.0000E+00  0.4178E-04  0.0000E+00  0.0000E+00  0.0000E+00  0.0000E+00  0.0000E+00  0.4178E-04  0.0000E+00  0.0000E+00  0.0000E+00  0.0000E+00  0.0000E+00  0.0000E+00  0.0000E+00  0.0000E+00  0.0000E+00  0.0000E+00  0.0000E+00  0.0000E+00  0.0000E+00  0.0000E+00  0.0000E+00  0.0000E+00  0.0000E+00  0.0000E+00  0.0000E+00  0.0000E+00  0.0000E+00  0.0000E+00  0.0000E+00  0.0000E+00  0.0000E+00  0.0000E+00  0.0000E+00  0.1505E+02
REACH   92        0   1  1 2011   0.2541E+03  0.2780E-05  0.0000E+00  0.2780E-05  0.0000E+00  0.3892E-08  0.0000E+00  0.0000E+00  0.2402E-04  0.0000E+00  0.7206E-04  0.0000E+00  0.2405E-04  0.0000E+00  0.0000E+00  0.0000E+00  0.0000E+00  0.0000E+00  0.2405E-04  0.0000E+00  0.0000E+00  0.0000E+00  0.0000E+00  0.0000E+00  0.0000E+00  0.0000E+00  0.0000E+00  0.0000E+00  0.0000E+00  0.0000E+00  0.0000E+00  0.0000E+00  0.0000E+00  0.0000E+00  0.0000E+00  0.0000E+00  0.0000E+00  0.0000E+00  0.0000E+00  0.0000E+00  0.0000E+00  0.0000E+00  0.0000E+00  0.0000E+00  0.0000E+00  0.0000E+00  0.1426E+02
REACH   93        0   1  1 2011   0.2407E+04  0.2328E-05  0.0000E+00  0.2328E-05  0.0000E+00  0.3868E-08  0.0000E+00  0.0000E+00  0.2011E-04  0.0000E+00  0.6033E-04  0.0000E+00  0.2013E-04  0.0000E+00  0.0000E+00  0.0000E+00  0.0000E+00  0.0000E+00  0.2013E-04  0.0000E+00  0.0000E+00  0.0000E+00  0.0000E+00  0.0000E+00  0.0000E+00  0.0000E+00  0.0000E+00  0.0000E+00  0.0000E+00  0.0000E+00  0.0000E+00  0.0000E+00  0.0000E+00  0.0000E+00  0.0000E+00  0.0000E+00  0.0000E+00  0.0000E+00  0.0000E+00  0.0000E+00  0.0000E+00  0.0000E+00  0.0000E+00  0.0000E+00  0.0000E+00  0.0000E+00  0.1426E+02
REACH   94        0   1  1 2011   0.2624E+04  0.1471E-06  0.0000E+00  0.1471E-06  0.0000E+00  0.1997E-08  0.0000E+00  0.0000E+00  0.1271E-05  0.0000E+00  0.3812E-05  0.0000E+00  0.1272E-05  0.0000E+00  0.0000E+00  0.0000E+00  0.0000E+00  0.0000E+00  0.1272E-05  0.0000E+00  0.0000E+00  0.0000E+00  0.0000E+00  0.0000E+00  0.0000E+00  0.0000E+00  0.0000E+00  0.0000E+00  0.0000E+00  0.0000E+00  0.0000E+00  0.0000E+00  0.0000E+00  0.0000E+00  0.0000E+00  0.0000E+00  0.0000E+00  0.0000E+00  0.0000E+00  0.0000E+00  0.0000E+00  0.0000E+00  0.0000E+00  0.0000E+00  0.0000E+00  0.0000E+00  0.1426E+02
REACH   95        0   1  1 2011   0.2433E+05  0.9344E+03  0.9211E+03  0.2150E+01  0.0000E+00  0.7292E-03  0.7119E-03  0.8944E-05  0.6032E-04  0.0000E+00  0.1809E-03  0.0000E+00  0.6039E-04  0.0000E+00  0.9114E+02  0.1153E+03  0.2677E+00  0.7918E+00  0.6039E-04  0.0000E+00  0.0000E+00  0.0000E+00  0.0000E+00  0.0000E+00  0.1962E+05  0.5802E+05  0.7872E-06  0.1920E-06  0.7872E-06  0.1920E-06  0.1098E-07  0.1595E-07  0.7737E-06  0.3158E-08 -0.2352E-08  0.5533E-07  0.5121E-07  0.1051E-05  0.1000E-02  0.1000E-02  0.1000E-02  0.1000E-02  0.1000E-02  0.1161E+03  0.0000E+00  0.0000E+00  0.1426E+02
REACH   96        0   1  1 2011   0.9295E+03  0.9565E-05  0.0000E+00  0.9565E-05  0.0000E+00  0.1328E-07  0.0000E+00  0.0000E+00  0.8264E-04  0.0000E+00  0.2479E-03  0.0000E+00  0.8274E-04  0.0000E+00  0.0000E+00  0.0000E+00  0.0000E+00  0.0000E+00  0.8274E-04  0.0000E+00  0.0000E+00  0.0000E+00  0.0000E+00  0.0000E+00  0.0000E+00  0.0000E+00  0.0000E+00  0.0000E+00  0.0000E+00  0.0000E+00  0.0000E+00  0.0000E+00  0.0000E+00  0.0000E+00  0.0000E+00  0.0000E+00  0.0000E+00  0.0000E+00  0.0000E+00  0.0000E+00  0.0000E+00  0.0000E+00  0.0000E+00  0.0000E+00  0.0000E+00  0.0000E+00  0.1426E+02
REACH   97        0   1  1 2011   0.2322E+04  0.5857E-05  0.0000E+00  0.5857E-05  0.0000E+00  0.7598E-08  0.0000E+00  0.0000E+00  0.5061E-04  0.0000E+00  0.1518E-03  0.0000E+00  0.5066E-04  0.0000E+00  0.0000E+00  0.0000E+00  0.0000E+00  0.0000E+00  0.5066E-04  0.0000E+00  0.0000E+00  0.0000E+00  0.0000E+00  0.0000E+00  0.0000E+00  0.0000E+00  0.0000E+00  0.0000E+00  0.0000E+00  0.0000E+00  0.0000E+00  0.0000E+00  0.0000E+00  0.0000E+00  0.0000E+00  0.0000E+00  0.0000E+00  0.0000E+00  0.0000E+00  0.0000E+00  0.0000E+00  0.0000E+00  0.0000E+00  0.0000E+00  0.0000E+00  0.0000E+00  0.1426E+02
REACH   98        0   1  1 2011   0.7726E+03  0.7744E-05  0.0000E+00  0.7744E-05  0.0000E+00  0.7591E-08  0.0000E+00  0.0000E+00  0.6691E-04  0.0000E+00  0.2007E-03  0.0000E+00  0.6699E-04  0.0000E+00  0.0000E+00  0.0000E+00  0.0000E+00  0.0000E+00  0.6699E-04  0.0000E+00  0.0000E+00  0.0000E+00  0.0000E+00  0.0000E+00  0.0000E+00  0.0000E+00  0.0000E+00  0.0000E+00  0.0000E+00  0.0000E+00  0.0000E+00  0.0000E+00  0.0000E+00  0.0000E+00  0.0000E+00  0.0000E+00  0.0000E+00  0.0000E+00  0.0000E+00  0.0000E+00  0.0000E+00  0.0000E+00  0.0000E+00  0.0000E+00  0.0000E+00  0.0000E+00  0.1426E+02
REACH   99        0   1  1 2011   0.2715E+03  0.3014E-05  0.0000E+00  0.3014E-05  0.0000E+00  0.6800E-08  0.0000E+00  0.0000E+00  0.2604E-04  0.0000E+00  0.7812E-04  0.0000E+00  0.2607E-04  0.0000E+00  0.0000E+00  0.0000E+00  0.0000E+00  0.0000E+00  0.2607E-04  0.0000E+00  0.0000E+00  0.0000E+00  0.0000E+00  0.0000E+00  0.0000E+00  0.0000E+00  0.0000E+00  0.0000E+00  0.0000E+00  0.0000E+00  0.0000E+00  0.0000E+00  0.0000E+00  0.0000E+00  0.0000E+00  0.0000E+00  0.0000E+00  0.0000E+00  0.0000E+00  0.0000E+00  0.0000E+00  0.0000E+00  0.0000E+00  0.0000E+00  0.0000E+00  0.0000E+00  0.1426E+02
REACH  100        0   1  1 2011   0.6160E+03  0.6262E-05  0.0000E+00  0.6262E-05  0.0000E+00  0.3733E-08  0.0000E+00  0.0000E+00  0.5410E-04  0.0000E+00  0.1623E-03  0.0000E+00  0.5416E-04  0.0000E+00  0.0000E+00  0.0000E+00  0.0000E+00  0.0000E+00  0.5416E-04  0.0000E+00  0.0000E+00  0.0000E+00  0.0000E+00  0.0000E+00  0.0000E+00  0.0000E+00  0.0000E+00  0.0000E+00  0.0000E+00  0.0000E+00  0.0000E+00  0.0000E+00  0.0000E+00  0.0000E+00  0.0000E+00  0.0000E+00  0.0000E+00  0.0000E+00  0.0000E+00  0.0000E+00  0.0000E+00  0.0000E+00  0.0000E+00  0.0000E+00  0.0000E+00  0.0000E+00  0.1426E+02
REACH  101        0   1  1 2011   0.1116E+04  0.3847E-05  0.0000E+00  0.3847E-05  0.0000E+00  0.6799E-08  0.0000E+00  0.0000E+00  0.3324E-04  0.0000E+00  0.9972E-04  0.0000E+00  0.3327E-04  0.0000E+00  0.0000E+00  0.0000E+00  0.0000E+00  0.0000E+00  0.3327E-04  0.0000E+00  0.0000E+00  0.0000E+00  0.0000E+00  0.0000E+00  0.0000E+00  0.0000E+00  0.0000E+00  0.0000E+00  0.0000E+00  0.0000E+00  0.0000E+00  0.0000E+00  0.0000E+00  0.0000E+00  0.0000E+00  0.0000E+00  0.0000E+00  0.0000E+00  0.0000E+00  0.0000E+00  0.0000E+00  0.0000E+00  0.0000E+00  0.0000E+00  0.0000E+00  0.0000E+00  0.1426E+02
REACH  102        0   1  1 2011   0.2797E+03  0.3205E-05  0.0000E+00  0.3205E-05  0.0000E+00  0.8941E-08  0.0000E+00  0.0000E+00  0.2769E-04  0.0000E+00  0.8306E-04  0.0000E+00  0.2772E-04  0.0000E+00  0.0000E+00  0.0000E+00  0.0000E+00  0.0000E+00  0.2772E-04  0.0000E+00  0.0000E+00  0.0000E+00  0.0000E+00  0.0000E+00  0.0000E+00  0.0000E+00  0.0000E+00  0.0000E+00  0.0000E+00  0.0000E+00  0.0000E+00  0.0000E+00  0.0000E+00  0.0000E+00  0.0000E+00  0.0000E+00  0.0000E+00  0.0000E+00  0.0000E+00  0.0000E+00  0.0000E+00  0.0000E+00  0.0000E+00  0.0000E+00  0.0000E+00  0.0000E+00  0.1426E+02
REACH  103        0   1  1 2011   0.9726E+03  0.9963E-05  0.0000E+00  0.9963E-05  0.0000E+00  0.1544E-07  0.0000E+00  0.0000E+00  0.8608E-04  0.0000E+00  0.2582E-03  0.0000E+00  0.8617E-04  0.0000E+00  0.0000E+00  0.0000E+00  0.0000E+00  0.0000E+00  0.8617E-04  0.0000E+00  0.0000E+00  0.0000E+00  0.0000E+00  0.0000E+00  0.0000E+00  0.0000E+00  0.0000E+00  0.0000E+00  0.0000E+00  0.0000E+00  0.0000E+00  0.0000E+00  0.0000E+00  0.0000E+00  0.0000E+00  0.0000E+00  0.0000E+00  0.0000E+00  0.0000E+00  0.0000E+00  0.0000E+00  0.0000E+00  0.0000E+00  0.0000E+00  0.0000E+00  0.0000E+00  0.1426E+02
REACH  104        0   1  1 2011   0.9705E+03  0.8840E-05  0.0000E+00  0.8840E-05  0.0000E+00  0.3219E-08  0.0000E+00  0.0000E+00  0.7637E-04  0.0000E+00  0.2291E-03  0.0000E+00  0.7647E-04  0.0000E+00  0.0000E+00  0.0000E+00  0.0000E+00  0.0000E+00  0.7647E-04  0.0000E+00  0.0000E+00  0.0000E+00  0.0000E+00  0.0000E+00  0.0000E+00  0.0000E+00  0.0000E+00  0.0000E+00  0.0000E+00  0.0000E+00  0.0000E+00  0.0000E+00  0.0000E+00  0.0000E+00  0.0000E+00  0.0000E+00  0.0000E+00  0.0000E+00  0.0000E+00  0.0000E+00  0.0000E+00  0.0000E+00  0.0000E+00  0.0000E+00  0.0000E+00  0.0000E+00  0.1426E+02
REACH  105        0   1  1 2011   0.4336E+03  0.4212E-05  0.0000E+00  0.4212E-05  0.0000E+00  0.3615E-08  0.0000E+00  0.0000E+00  0.3639E-04  0.0000E+00  0.1092E-03  0.0000E+00  0.3644E-04  0.0000E+00  0.0000E+00  0.0000E+00  0.0000E+00  0.0000E+00  0.3644E-04  0.0000E+00  0.0000E+00  0.0000E+00  0.0000E+00  0.0000E+00  0.0000E+00  0.0000E+00  0.0000E+00  0.0000E+00  0.0000E+00  0.0000E+00  0.0000E+00  0.0000E+00  0.0000E+00  0.0000E+00  0.0000E+00  0.0000E+00  0.0000E+00  0.0000E+00  0.0000E+00  0.0000E+00  0.0000E+00  0.0000E+00  0.0000E+00  0.0000E+00  0.0000E+00  0.0000E+00  0.1426E+02
REACH  106        0   1  1 2011   0.4898E+03  0.5336E-05  0.0000E+00  0.5336E-05  0.0000E+00  0.7687E-08  0.0000E+00  0.0000E+00  0.4611E-04  0.0000E+00  0.1383E-03  0.0000E+00  0.4616E-04  0.0000E+00  0.0000E+00  0.0000E+00  0.0000E+00  0.0000E+00  0.4616E-04  0.0000E+00  0.0000E+00  0.0000E+00  0.0000E+00  0.0000E+00  0.0000E+00  0.0000E+00  0.0000E+00  0.0000E+00  0.0000E+00  0.0000E+00  0.0000E+00  0.0000E+00  0.0000E+00  0.0000E+00  0.0000E+00  0.0000E+00  0.0000E+00  0.0000E+00  0.0000E+00  0.0000E+00  0.0000E+00  0.0000E+00  0.0000E+00  0.0000E+00  0.0000E+00  0.0000E+00  0.1426E+02
REACH  107        0   1  1 2011   0.1139E+04  0.8068E-05  0.0000E+00  0.8068E-05  0.0000E+00  0.6246E-08  0.0000E+00  0.0000E+00  0.6971E-04  0.0000E+00  0.2091E-03  0.0000E+00  0.6982E-04  0.0000E+00  0.0000E+00  0.0000E+00  0.0000E+00  0.0000E+00  0.6982E-04  0.0000E+00  0.0000E+00  0.0000E+00  0.0000E+00  0.0000E+00  0.0000E+00  0.0000E+00  0.0000E+00  0.0000E+00  0.0000E+00  0.0000E+00  0.0000E+00  0.0000E+00  0.0000E+00  0.0000E+00  0.0000E+00  0.0000E+00  0.0000E+00  0.0000E+00  0.0000E+00  0.0000E+00  0.0000E+00  0.0000E+00  0.0000E+00  0.0000E+00  0.0000E+00  0.0000E+00  0.1426E+02
REACH  108        0   1  1 2011   0.3940E+04  0.6106E-05  0.0000E+00  0.6106E-05  0.0000E+00  0.3638E-08  0.0000E+00  0.0000E+00  0.5276E-04  0.0000E+00  0.1583E-03  0.0000E+00  0.5282E-04  0.0000E+00  0.0000E+00  0.0000E+00  0.0000E+00  0.0000E+00  0.5282E-04  0.0000E+00  0.0000E+00  0.0000E+00  0.0000E+00  0.0000E+00  0.0000E+00  0.0000E+00  0.0000E+00  0.0000E+00  0.0000E+00  0.0000E+00  0.0000E+00  0.0000E+00  0.0000E+00  0.0000E+00  0.0000E+00  0.0000E+00  0.0000E+00  0.0000E+00  0.0000E+00  0.0000E+00  0.0000E+00  0.0000E+00  0.0000E+00  0.0000E+00  0.0000E+00  0.0000E+00  0.1426E+02
REACH  109        0   1  1 2011   0.4311E+03  0.3583E-05  0.0000E+00  0.3583E-05  0.0000E+00  0.5958E-08  0.0000E+00  0.0000E+00  0.3096E-04  0.0000E+00  0.9288E-04  0.0000E+00  0.3100E-04  0.0000E+00  0.0000E+00  0.0000E+00  0.0000E+00  0.0000E+00  0.3100E-04  0.0000E+00  0.0000E+00  0.0000E+00  0.0000E+00  0.0000E+00  0.0000E+00  0.0000E+00  0.0000E+00  0.0000E+00  0.0000E+00  0.0000E+00  0.0000E+00  0.0000E+00  0.0000E+00  0.0000E+00  0.0000E+00  0.0000E+00  0.0000E+00  0.0000E+00  0.0000E+00  0.0000E+00  0.0000E+00  0.0000E+00  0.0000E+00  0.0000E+00  0.0000E+00  0.0000E+00  0.1426E+02
REACH  110        0   1  1 2011   0.1722E+04  0.2566E-05  0.0000E+00  0.2566E-05  0.0000E+00  0.1481E-07  0.0000E+00  0.0000E+00  0.2217E-04  0.0000E+00  0.6651E-04  0.0000E+00  0.2219E-04  0.0000E+00  0.0000E+00  0.0000E+00  0.0000E+00  0.0000E+00  0.2219E-04  0.0000E+00  0.0000E+00  0.0000E+00  0.0000E+00  0.0000E+00  0.0000E+00  0.0000E+00  0.0000E+00  0.0000E+00  0.0000E+00  0.0000E+00  0.0000E+00  0.0000E+00  0.0000E+00  0.0000E+00  0.0000E+00  0.0000E+00  0.0000E+00  0.0000E+00  0.0000E+00  0.0000E+00  0.0000E+00  0.0000E+00  0.0000E+00  0.0000E+00  0.0000E+00  0.0000E+00  0.1426E+02
REACH  111        0   1  1 2011   0.3565E+03  0.3722E-05  0.0000E+00  0.3722E-05  0.0000E+00  0.1358E-07  0.0000E+00  0.0000E+00  0.3216E-04  0.0000E+00  0.9649E-04  0.0000E+00  0.3220E-04  0.0000E+00  0.0000E+00  0.0000E+00  0.0000E+00  0.0000E+00  0.3220E-04  0.0000E+00  0.0000E+00  0.0000E+00  0.0000E+00  0.0000E+00  0.0000E+00  0.0000E+00  0.0000E+00  0.0000E+00  0.0000E+00  0.0000E+00  0.0000E+00  0.0000E+00  0.0000E+00  0.0000E+00  0.0000E+00  0.0000E+00  0.0000E+00  0.0000E+00  0.0000E+00  0.0000E+00  0.0000E+00  0.0000E+00  0.0000E+00  0.0000E+00  0.0000E+00  0.0000E+00  0.1426E+02
REACH  112        0   1  1 2011   0.4415E+04  0.4888E-06  0.0000E+00  0.4888E-06  0.0000E+00  0.1916E-08  0.0000E+00  0.0000E+00  0.4224E-05  0.0000E+00  0.1267E-04  0.0000E+00  0.4228E-05  0.0000E+00  0.0000E+00  0.0000E+00  0.0000E+00  0.0000E+00  0.4228E-05  0.0000E+00  0.0000E+00  0.0000E+00  0.0000E+00  0.0000E+00  0.0000E+00  0.0000E+00  0.0000E+00  0.0000E+00  0.0000E+00  0.0000E+00  0.0000E+00  0.0000E+00  0.0000E+00  0.0000E+00  0.0000E+00  0.0000E+00  0.0000E+00  0.0000E+00  0.0000E+00  0.0000E+00  0.0000E+00  0.0000E+00  0.0000E+00  0.0000E+00  0.0000E+00  0.0000E+00  0.1426E+02
REACH  113        0   1  1 2011   0.2882E+03  0.2687E-05  0.0000E+00  0.2687E-05  0.0000E+00  0.6393E-08  0.0000E+00  0.0000E+00  0.2322E-04  0.0000E+00  0.6965E-04  0.0000E+00  0.2325E-04  0.0000E+00  0.0000E+00  0.0000E+00  0.0000E+00  0.0000E+00  0.2325E-04  0.0000E+00  0.0000E+00  0.0000E+00  0.0000E+00  0.0000E+00  0.0000E+00  0.0000E+00  0.0000E+00  0.0000E+00  0.0000E+00  0.0000E+00  0.0000E+00  0.0000E+00  0.0000E+00  0.0000E+00  0.0000E+00  0.0000E+00  0.0000E+00  0.0000E+00  0.0000E+00  0.0000E+00  0.0000E+00  0.0000E+00  0.0000E+00  0.0000E+00  0.0000E+00  0.0000E+00  0.1426E+02
REACH  114        0   1  1 2011   0.2014E+05  0.6929E-05  0.0000E+00  0.6929E-05  0.0000E+00  0.5446E-08  0.0000E+00  0.0000E+00  0.5987E-04  0.0000E+00  0.1796E-03  0.0000E+00  0.5995E-04  0.0000E+00  0.0000E+00  0.0000E+00  0.0000E+00  0.0000E+00  0.5995E-04  0.0000E+00  0.0000E+00  0.0000E+00  0.0000E+00  0.0000E+00  0.0000E+00  0.0000E+00  0.0000E+00  0.0000E+00  0.0000E+00  0.0000E+00  0.0000E+00  0.0000E+00  0.0000E+00  0.0000E+00  0.0000E+00  0.0000E+00  0.0000E+00  0.0000E+00  0.0000E+00  0.0000E+00  0.0000E+00  0.0000E+00  0.0000E+00  0.0000E+00  0.0000E+00  0.0000E+00  0.1426E+02
REACH  115        0   1  1 2011   0.8244E+03  0.7335E-05  0.0000E+00  0.7335E-05  0.0000E+00  0.7093E-08  0.0000E+00  0.0000E+00  0.6338E-04  0.0000E+00  0.1901E-03  0.0000E+00  0.6346E-04  0.0000E+00  0.0000E+00  0.0000E+00  0.0000E+00  0.0000E+00  0.6346E-04  0.0000E+00  0.0000E+00  0.0000E+00  0.0000E+00  0.0000E+00  0.0000E+00  0.0000E+00  0.0000E+00  0.0000E+00  0.0000E+00  0.0000E+00  0.0000E+00  0.0000E+00  0.0000E+00  0.0000E+00  0.0000E+00  0.0000E+00  0.0000E+00  0.0000E+00  0.0000E+00  0.0000E+00  0.0000E+00  0.0000E+00  0.0000E+00  0.0000E+00  0.0000E+00  0.0000E+00  0.1426E+02
REACH  116        0   1  1 2011   0.3883E+03  0.4324E-05  0.0000E+00  0.4324E-05  0.0000E+00  0.1833E-07  0.0000E+00  0.0000E+00  0.3736E-04  0.0000E+00  0.1121E-03  0.0000E+00  0.3740E-04  0.0000E+00  0.0000E+00  0.0000E+00  0.0000E+00  0.0000E+00  0.3740E-04  0.0000E+00  0.0000E+00  0.0000E+00  0.0000E+00  0.0000E+00  0.0000E+00  0.0000E+00  0.0000E+00  0.0000E+00  0.0000E+00  0.0000E+00  0.0000E+00  0.0000E+00  0.0000E+00  0.0000E+00  0.0000E+00  0.0000E+00  0.0000E+00  0.0000E+00  0.0000E+00  0.0000E+00  0.0000E+00  0.0000E+00  0.0000E+00  0.0000E+00  0.0000E+00  0.0000E+00  0.1426E+02
REACH  117        0   1  1 2011   0.3640E+03  0.3753E-05  0.0000E+00  0.3753E-05  0.0000E+00  0.3684E-08  0.0000E+00  0.0000E+00  0.3243E-04  0.0000E+00  0.9728E-04  0.0000E+00  0.3246E-04  0.0000E+00  0.0000E+00  0.0000E+00  0.0000E+00  0.0000E+00  0.3246E-04  0.0000E+00  0.0000E+00  0.0000E+00  0.0000E+00  0.0000E+00  0.0000E+00  0.0000E+00  0.0000E+00  0.0000E+00  0.0000E+00  0.0000E+00  0.0000E+00  0.0000E+00  0.0000E+00  0.0000E+00  0.0000E+00  0.0000E+00  0.0000E+00  0.0000E+00  0.0000E+00  0.0000E+00  0.0000E+00  0.0000E+00  0.0000E+00  0.0000E+00  0.0000E+00  0.0000E+00  0.1426E+02
REACH  118        0   1  1 2011   0.4761E+04  0.6407E-06  0.0000E+00  0.6407E-06  0.0000E+00  0.3938E-08  0.0000E+00  0.0000E+00  0.5536E-05  0.0000E+00  0.1661E-04  0.0000E+00  0.5542E-05  0.0000E+00  0.0000E+00  0.0000E+00  0.0000E+00  0.0000E+00  0.5542E-05  0.0000E+00  0.0000E+00  0.0000E+00  0.0000E+00  0.0000E+00  0.0000E+00  0.0000E+00  0.0000E+00  0.0000E+00  0.0000E+00  0.0000E+00  0.0000E+00  0.0000E+00  0.0000E+00  0.0000E+00  0.0000E+00  0.0000E+00  0.0000E+00  0.0000E+00  0.0000E+00  0.0000E+00  0.0000E+00  0.0000E+00  0.0000E+00  0.0000E+00  0.0000E+00  0.0000E+00  0.1426E+02
REACH  119        0   1  1 2011   0.2193E+05  0.7130E-06  0.0000E+00  0.7130E-06  0.0000E+00  0.6976E-08  0.0000E+00  0.0000E+00  0.6160E-05  0.0000E+00  0.1848E-04  0.0000E+00  0.6167E-05  0.0000E+00  0.0000E+00  0.0000E+00  0.0000E+00  0.0000E+00  0.6167E-05  0.0000E+00  0.0000E+00  0.0000E+00  0.0000E+00  0.0000E+00  0.0000E+00  0.0000E+00  0.0000E+00  0.0000E+00  0.0000E+00  0.0000E+00  0.0000E+00  0.0000E+00  0.0000E+00  0.0000E+00  0.0000E+00  0.0000E+00  0.0000E+00  0.0000E+00  0.0000E+00  0.0000E+00  0.0000E+00  0.0000E+00  0.0000E+00  0.0000E+00  0.0000E+00  0.0000E+00  0.1426E+02
REACH  120        0   1  1 2011   0.3934E+03  0.3744E-05  0.0000E+00  0.3744E-05  0.0000E+00  0.3677E-08  0.0000E+00  0.0000E+00  0.3235E-04  0.0000E+00  0.9705E-04  0.0000E+00  0.3239E-04  0.0000E+00  0.0000E+00  0.0000E+00  0.0000E+00  0.0000E+00  0.3239E-04  0.0000E+00  0.0000E+00  0.0000E+00  0.0000E+00  0.0000E+00  0.0000E+00  0.0000E+00  0.0000E+00  0.0000E+00  0.0000E+00  0.0000E+00  0.0000E+00  0.0000E+00  0.0000E+00  0.0000E+00  0.0000E+00  0.0000E+00  0.0000E+00  0.0000E+00  0.0000E+00  0.0000E+00  0.0000E+00  0.0000E+00  0.0000E+00  0.0000E+00  0.0000E+00  0.0000E+00  0.1426E+02
REACH  121        0   1  1 2011   0.1444E+04  0.3327E-05  0.0000E+00  0.3327E-05  0.0000E+00  0.3545E-08  0.0000E+00  0.0000E+00  0.2874E-04  0.0000E+00  0.8623E-04  0.0000E+00  0.2878E-04  0.0000E+00  0.0000E+00  0.0000E+00  0.0000E+00  0.0000E+00  0.2878E-04  0.0000E+00  0.0000E+00  0.0000E+00  0.0000E+00  0.0000E+00  0.0000E+00  0.0000E+00  0.0000E+00  0.0000E+00  0.0000E+00  0.0000E+00  0.0000E+00  0.0000E+00  0.0000E+00  0.0000E+00  0.0000E+00  0.0000E+00  0.0000E+00  0.0000E+00  0.0000E+00  0.0000E+00  0.0000E+00  0.0000E+00  0.0000E+00  0.0000E+00  0.0000E+00  0.0000E+00  0.1426E+02
REACH  122        0   1  1 2011   0.2783E+03  0.3036E-05  0.0000E+00  0.3036E-05  0.0000E+00  0.5894E-08  0.0000E+00  0.0000E+00  0.2623E-04  0.0000E+00  0.7869E-04  0.0000E+00  0.2626E-04  0.0000E+00  0.0000E+00  0.0000E+00  0.0000E+00  0.0000E+00  0.2626E-04  0.0000E+00  0.0000E+00  0.0000E+00  0.0000E+00  0.0000E+00  0.0000E+00  0.0000E+00  0.0000E+00  0.0000E+00  0.0000E+00  0.0000E+00  0.0000E+00  0.0000E+00  0.0000E+00  0.0000E+00  0.0000E+00  0.0000E+00  0.0000E+00  0.0000E+00  0.0000E+00  0.0000E+00  0.0000E+00  0.0000E+00  0.0000E+00  0.0000E+00  0.0000E+00  0.0000E+00  0.1494E+02
REACH  123        0   1  1 2011   0.4363E+03  0.4228E-05  0.0000E+00  0.4228E-05  0.0000E+00  0.3479E-08  0.0000E+00  0.0000E+00  0.3653E-04  0.0000E+00  0.1096E-03  0.0000E+00  0.3657E-04  0.0000E+00  0.0000E+00  0.0000E+00  0.0000E+00  0.0000E+00  0.3657E-04  0.0000E+00  0.0000E+00  0.0000E+00  0.0000E+00  0.0000E+00  0.0000E+00  0.0000E+00  0.0000E+00  0.0000E+00  0.0000E+00  0.0000E+00  0.0000E+00  0.0000E+00  0.0000E+00  0.0000E+00  0.0000E+00  0.0000E+00  0.0000E+00  0.0000E+00  0.0000E+00  0.0000E+00  0.0000E+00  0.0000E+00  0.0000E+00  0.0000E+00  0.0000E+00  0.0000E+00  0.1494E+02
REACH  124        0   1  1 2011   0.7196E+03  0.6804E-05  0.0000E+00  0.6804E-05  0.0000E+00  0.8264E-08  0.0000E+00  0.0000E+00  0.5879E-04  0.0000E+00  0.1764E-03  0.0000E+00  0.5886E-04  0.0000E+00  0.0000E+00  0.0000E+00  0.0000E+00  0.0000E+00  0.5886E-04  0.0000E+00  0.0000E+00  0.0000E+00  0.0000E+00  0.0000E+00  0.0000E+00  0.0000E+00  0.0000E+00  0.0000E+00  0.0000E+00  0.0000E+00  0.0000E+00  0.0000E+00  0.0000E+00  0.0000E+00  0.0000E+00  0.0000E+00  0.0000E+00  0.0000E+00  0.0000E+00  0.0000E+00  0.0000E+00  0.0000E+00  0.0000E+00  0.0000E+00  0.0000E+00  0.0000E+00  0.1494E+02
REACH  125        0   1  1 2011   0.1539E+04  0.3510E-05  0.0000E+00  0.3510E-05  0.0000E+00  0.2764E-07  0.0000E+00  0.0000E+00  0.3032E-04  0.0000E+00  0.9097E-04  0.0000E+00  0.3036E-04  0.0000E+00  0.0000E+00  0.0000E+00  0.0000E+00  0.0000E+00  0.3036E-04  0.0000E+00  0.0000E+00  0.0000E+00  0.0000E+00  0.0000E+00  0.0000E+00  0.0000E+00  0.0000E+00  0.0000E+00  0.0000E+00  0.0000E+00  0.0000E+00  0.0000E+00  0.0000E+00  0.0000E+00  0.0000E+00  0.0000E+00  0.0000E+00  0.0000E+00  0.0000E+00  0.0000E+00  0.0000E+00  0.0000E+00  0.0000E+00  0.0000E+00  0.0000E+00  0.0000E+00  0.1494E+02
REACH  126        0   1  1 2011   0.2751E+05  0.9211E+03  0.7734E+03  0.2285E+01  0.0000E+00  0.7119E-03  0.5043E-03  0.7547E-05  0.4420E-04  0.0000E+00  0.1326E-03  0.0000E+00  0.4426E-04  0.0000E+00  0.1153E+03  0.1144E+03  0.7918E+00  0.1994E+01  0.4426E-04  0.0000E+00  0.0000E+00  0.0000E+00  0.0000E+00  0.0000E+00  0.5802E+05  0.1461E+06  0.1920E-06  0.0000E+00  0.1920E-06  0.0000E+00  0.0000E+00  0.0000E+00  0.0000E+00  0.0000E+00  0.0000E+00  0.0000E+00  0.0000E+00  0.0000E+00  0.1000E-02  0.1000E-02  0.1000E-02  0.1000E-02  0.1000E-02  0.1164E+03  0.0000E+00  0.0000E+00  0.1494E+02
REACH  127        0   1  1 2011   0.2955E+03  0.2964E-05  0.0000E+00  0.2964E-05  0.0000E+00  0.3673E-08  0.0000E+00  0.0000E+00  0.2561E-04  0.0000E+00  0.7683E-04  0.0000E+00  0.2564E-04  0.0000E+00  0.0000E+00  0.0000E+00  0.0000E+00  0.0000E+00  0.2564E-04  0.0000E+00  0.0000E+00  0.0000E+00  0.0000E+00  0.0000E+00  0.0000E+00  0.0000E+00  0.0000E+00  0.0000E+00  0.0000E+00  0.0000E+00  0.0000E+00  0.0000E+00  0.0000E+00  0.0000E+00  0.0000E+00  0.0000E+00  0.0000E+00  0.0000E+00  0.0000E+00  0.0000E+00  0.0000E+00  0.0000E+00  0.0000E+00  0.0000E+00  0.0000E+00  0.0000E+00  0.1494E+02
REACH  128        0   1  1 2011   0.3323E+03  0.3509E-05  0.0000E+00  0.3509E-05  0.0000E+00  0.5719E-08  0.0000E+00  0.0000E+00  0.3032E-04  0.0000E+00  0.9096E-04  0.0000E+00  0.3035E-04  0.0000E+00  0.0000E+00  0.0000E+00  0.0000E+00  0.0000E+00  0.3035E-04  0.0000E+00  0.0000E+00  0.0000E+00  0.0000E+00  0.0000E+00  0.0000E+00  0.0000E+00  0.0000E+00  0.0000E+00  0.0000E+00  0.0000E+00  0.0000E+00  0.0000E+00  0.0000E+00  0.0000E+00  0.0000E+00  0.0000E+00  0.0000E+00  0.0000E+00  0.0000E+00  0.0000E+00  0.0000E+00  0.0000E+00  0.0000E+00  0.0000E+00  0.0000E+00  0.0000E+00  0.1494E+02
REACH  129        0   1  1 2011   0.4092E+05  0.7713E+03  0.7710E+03  0.3467E+00  0.0000E+00  0.5043E-03  0.5043E-03  0.7571E-05  0.2051E-04  0.0000E+00  0.6153E-04  0.0000E+00  0.2053E-04  0.0000E+00  0.1221E+03  0.1243E+03  0.1540E+02  0.1696E+02  0.2053E-04  0.0000E+00  0.0000E+00  0.0000E+00  0.0000E+00  0.0000E+00  0.6629E+06  0.6626E+06  0.0000E+00  0.0000E+00  0.0000E+00  0.0000E+00  0.0000E+00  0.0000E+00  0.0000E+00  0.0000E+00  0.0000E+00  0.0000E+00  0.0000E+00  0.0000E+00  0.1000E-02  0.1000E-02  0.1000E-02  0.1000E-02  0.1000E-02  0.1412E+03  0.0000E+00  0.0000E+00  0.1494E+02
REACH  130        0   1  1 2011   0.1514E+04  0.1608E-05  0.0000E+00  0.1608E-05  0.0000E+00  0.1194E-07  0.0000E+00  0.0000E+00  0.1389E-04  0.0000E+00  0.4167E-04  0.0000E+00  0.1390E-04  0.0000E+00  0.0000E+00  0.0000E+00  0.0000E+00  0.0000E+00  0.1390E-04  0.0000E+00  0.0000E+00  0.0000E+00  0.0000E+00  0.0000E+00  0.0000E+00  0.0000E+00  0.0000E+00  0.0000E+00  0.0000E+00  0.0000E+00  0.0000E+00  0.0000E+00  0.0000E+00  0.0000E+00  0.0000E+00  0.0000E+00  0.0000E+00  0.0000E+00  0.0000E+00  0.0000E+00  0.0000E+00  0.0000E+00  0.0000E+00  0.0000E+00  0.0000E+00  0.0000E+00  0.1494E+02
REACH  131        0   1  1 2011   0.6536E+03  0.4874E-05  0.0000E+00  0.4874E-05  0.0000E+00  0.2878E-08  0.0000E+00  0.0000E+00  0.4211E-04  0.0000E+00  0.1263E-03  0.0000E+00  0.4217E-04  0.0000E+00  0.0000E+00  0.0000E+00  0.0000E+00  0.0000E+00  0.4217E-04  0.0000E+00  0.0000E+00  0.0000E+00  0.0000E+00  0.0000E+00  0.0000E+00  0.0000E+00  0.0000E+00  0.0000E+00  0.0000E+00  0.0000E+00  0.0000E+00  0.0000E+00  0.0000E+00  0.0000E+00  0.0000E+00  0.0000E+00  0.0000E+00  0.0000E+00  0.0000E+00  0.0000E+00  0.0000E+00  0.0000E+00  0.0000E+00  0.0000E+00  0.0000E+00  0.0000E+00  0.1494E+02
REACH  132        0   1  1 2011   0.2857E+03  0.3125E-05  0.0000E+00  0.3125E-05  0.0000E+00  0.8644E-08  0.0000E+00  0.0000E+00  0.2700E-04  0.0000E+00  0.8100E-04  0.0000E+00  0.2703E-04  0.0000E+00  0.0000E+00  0.0000E+00  0.0000E+00  0.0000E+00  0.2703E-04  0.0000E+00  0.0000E+00  0.0000E+00  0.0000E+00  0.0000E+00  0.0000E+00  0.0000E+00  0.0000E+00  0.0000E+00  0.0000E+00  0.0000E+00  0.0000E+00  0.0000E+00  0.0000E+00  0.0000E+00  0.0000E+00  0.0000E+00  0.0000E+00  0.0000E+00  0.0000E+00  0.0000E+00  0.0000E+00  0.0000E+00  0.0000E+00  0.0000E+00  0.0000E+00  0.0000E+00  0.1494E+02
[...]
REACH 1106        0   1  2 2011   0.9687E+04  0.7001E-05  0.0000E+00  0.7001E-05  0.0000E+00  0.1154E-07  0.0000E+00  0.0000E+00  0.6048E-04  0.0000E+00  0.1815E-03  0.0000E+00  0.6056E-04  0.0000E+00  0.0000E+00  0.0000E+00  0.0000E+00  0.0000E+00  0.6056E-04  0.0000E+00  0.0000E+00  0.0000E+00  0.0000E+00  0.0000E+00  0.0000E+00  0.0000E+00  0.0000E+00  0.0000E+00  0.0000E+00  0.0000E+00  0.0000E+00  0.0000E+00  0.0000E+00  0.0000E+00  0.0000E+00  0.0000E+00  0.0000E+00  0.0000E+00  0.0000E+00  0.0000E+00  0.0000E+00  0.0000E+00  0.0000E+00  0.0000E+00  0.0000E+00  0.0000E+00  0.2038E+02
REACH 1107        0   1  2 2011   0.4886E+06  0.4838E-05  0.0000E+00  0.4838E-05  0.0000E+00  0.1491E-07  0.0000E+00  0.0000E+00  0.3668E-04  0.0000E+00  0.1100E-03  0.0000E+00  0.3673E-04  0.0000E+00  0.0000E+00  0.0000E+00  0.0000E+00  0.0000E+00  0.3673E-04  0.0000E+00  0.0000E+00  0.0000E+00  0.0000E+00  0.0000E+00  0.0000E+00  0.0000E+00  0.0000E+00  0.0000E+00  0.0000E+00  0.0000E+00  0.0000E+00  0.0000E+00  0.0000E+00  0.0000E+00  0.0000E+00  0.0000E+00  0.0000E+00  0.0000E+00  0.0000E+00  0.0000E+00  0.1000E-02  0.1000E-02  0.1000E-02  0.0000E+00  0.0000E+00  0.0000E+00  0.2038E+02
REACH 1108        0   1  2 2011   0.2891E+03  0.2858E-05  0.0000E+00  0.2858E-05  0.0000E+00  0.1828E-07  0.0000E+00  0.0000E+00  0.2469E-04  0.0000E+00  0.7407E-04  0.0000E+00  0.2472E-04  0.0000E+00  0.0000E+00  0.0000E+00  0.0000E+00  0.0000E+00  0.2472E-04  0.0000E+00  0.0000E+00  0.0000E+00  0.0000E+00  0.0000E+00  0.0000E+00  0.0000E+00  0.0000E+00  0.0000E+00  0.0000E+00  0.0000E+00  0.0000E+00  0.0000E+00  0.0000E+00  0.0000E+00  0.0000E+00  0.0000E+00  0.0000E+00  0.0000E+00  0.0000E+00  0.0000E+00  0.0000E+00  0.0000E+00  0.0000E+00  0.0000E+00  0.0000E+00  0.0000E+00  0.2038E+02
REACH 1109        0   1  2 2011   0.7098E+03  0.6427E-05  0.0000E+00  0.6427E-05  0.0000E+00  0.1216E-07  0.0000E+00  0.0000E+00  0.5553E-04  0.0000E+00  0.1666E-03  0.0000E+00  0.5560E-04  0.0000E+00  0.0000E+00  0.0000E+00  0.0000E+00  0.0000E+00  0.5560E-04  0.0000E+00  0.0000E+00  0.0000E+00  0.0000E+00  0.0000E+00  0.0000E+00  0.0000E+00  0.0000E+00  0.0000E+00  0.0000E+00  0.0000E+00  0.0000E+00  0.0000E+00  0.0000E+00  0.0000E+00  0.0000E+00  0.0000E+00  0.0000E+00  0.0000E+00  0.0000E+00  0.0000E+00  0.0000E+00  0.0000E+00  0.0000E+00  0.0000E+00  0.0000E+00  0.0000E+00  0.1974E+02
REACH 1110        0   1  2 2011   0.3868E+03  0.3300E-05  0.0000E+00  0.3300E-05  0.0000E+00  0.5745E-08  0.0000E+00  0.0000E+00  0.2851E-04  0.0000E+00  0.8554E-04  0.0000E+00  0.2855E-04  0.0000E+00  0.0000E+00  0.0000E+00  0.0000E+00  0.0000E+00  0.2855E-04  0.0000E+00  0.0000E+00  0.0000E+00  0.0000E+00  0.0000E+00  0.0000E+00  0.0000E+00  0.0000E+00  0.0000E+00  0.0000E+00  0.0000E+00  0.0000E+00  0.0000E+00  0.0000E+00  0.0000E+00  0.0000E+00  0.0000E+00  0.0000E+00  0.0000E+00  0.0000E+00  0.0000E+00  0.0000E+00  0.0000E+00  0.0000E+00  0.0000E+00  0.0000E+00  0.0000E+00  0.1974E+02
REACH 1111        0   1  2 2011   0.1192E+04  0.5654E-05  0.0000E+00  0.5654E-05  0.0000E+00  0.6170E-08  0.0000E+00  0.0000E+00  0.4885E-04  0.0000E+00  0.1466E-03  0.0000E+00  0.4897E-04  0.0000E+00  0.0000E+00  0.0000E+00  0.0000E+00  0.0000E+00  0.4897E-04  0.0000E+00  0.0000E+00  0.0000E+00  0.0000E+00  0.0000E+00  0.0000E+00  0.0000E+00  0.0000E+00  0.0000E+00  0.0000E+00  0.0000E+00  0.0000E+00  0.0000E+00  0.0000E+00  0.0000E+00  0.0000E+00  0.0000E+00  0.0000E+00  0.0000E+00  0.0000E+00  0.0000E+00  0.0000E+00  0.0000E+00  0.0000E+00  0.0000E+00  0.0000E+00  0.0000E+00  0.1974E+02
REACH 1112        0   1  2 2011   0.1697E+04  0.2542E-05  0.0000E+00  0.2542E-05  0.0000E+00  0.9527E-08  0.0000E+00  0.0000E+00  0.2196E-04  0.0000E+00  0.6589E-04  0.0000E+00  0.2199E-04  0.0000E+00  0.0000E+00  0.0000E+00  0.0000E+00  0.0000E+00  0.2199E-04  0.0000E+00  0.0000E+00  0.0000E+00  0.0000E+00  0.0000E+00  0.0000E+00  0.0000E+00  0.0000E+00  0.0000E+00  0.0000E+00  0.0000E+00  0.0000E+00  0.0000E+00  0.0000E+00  0.0000E+00  0.0000E+00  0.0000E+00  0.0000E+00  0.0000E+00  0.0000E+00  0.0000E+00  0.0000E+00  0.0000E+00  0.0000E+00  0.0000E+00  0.0000E+00  0.0000E+00  0.1974E+02
REACH 1113        0   1  2 2011   0.8595E+04  0.5780E-06  0.0000E+00  0.5780E-06  0.0000E+00  0.2087E-07  0.0000E+00  0.0000E+00  0.4994E-05  0.0000E+00  0.1498E-04  0.0000E+00  0.4999E-05  0.0000E+00  0.0000E+00  0.0000E+00  0.0000E+00  0.0000E+00  0.4999E-05  0.0000E+00  0.0000E+00  0.0000E+00  0.0000E+00  0.0000E+00  0.0000E+00  0.0000E+00  0.0000E+00  0.0000E+00  0.0000E+00  0.0000E+00  0.0000E+00  0.0000E+00  0.0000E+00  0.0000E+00  0.0000E+00  0.0000E+00  0.0000E+00  0.0000E+00  0.0000E+00  0.0000E+00  0.0000E+00  0.0000E+00  0.0000E+00  0.0000E+00  0.0000E+00  0.0000E+00  0.1974E+02
REACH 1114        0   1  2 2011   0.3999E+03  0.3708E-05  0.0000E+00  0.3708E-05  0.0000E+00  0.6772E-08  0.0000E+00  0.0000E+00  0.3203E-04  0.0000E+00  0.9610E-04  0.0000E+00  0.3207E-04  0.0000E+00  0.0000E+00  0.0000E+00  0.0000E+00  0.0000E+00  0.3207E-04  0.0000E+00  0.0000E+00  0.0000E+00  0.0000E+00  0.0000E+00  0.0000E+00  0.0000E+00  0.0000E+00  0.0000E+00  0.0000E+00  0.0000E+00  0.0000E+00  0.0000E+00  0.0000E+00  0.0000E+00  0.0000E+00  0.0000E+00  0.0000E+00  0.0000E+00  0.0000E+00  0.0000E+00  0.0000E+00  0.0000E+00  0.0000E+00  0.0000E+00  0.0000E+00  0.0000E+00  0.1974E+02
REACH 1115        0   1  2 2011   0.4315E+03  0.3861E-05  0.0000E+00  0.3861E-05  0.0000E+00  0.1108E-07  0.0000E+00  0.0000E+00  0.3336E-04  0.0000E+00  0.1001E-03  0.0000E+00  0.3340E-04  0.0000E+00  0.0000E+00  0.0000E+00  0.0000E+00  0.0000E+00  0.3340E-04  0.0000E+00  0.0000E+00  0.0000E+00  0.0000E+00  0.0000E+00  0.0000E+00  0.0000E+00  0.0000E+00  0.0000E+00  0.0000E+00  0.0000E+00  0.0000E+00  0.0000E+00  0.0000E+00  0.0000E+00  0.0000E+00  0.0000E+00  0.0000E+00  0.0000E+00  0.0000E+00  0.0000E+00  0.0000E+00  0.0000E+00  0.0000E+00  0.0000E+00  0.0000E+00  0.0000E+00  0.1974E+02
REACH 1116        0   1  2 2011   0.2542E+04  0.9816E-06  0.0000E+00  0.9816E-06  0.0000E+00  0.1069E-07  0.0000E+00  0.0000E+00  0.8481E-05  0.0000E+00  0.2544E-04  0.0000E+00  0.8491E-05  0.0000E+00  0.0000E+00  0.0000E+00  0.0000E+00  0.0000E+00  0.8491E-05  0.0000E+00  0.0000E+00  0.0000E+00  0.0000E+00  0.0000E+00  0.0000E+00  0.0000E+00  0.0000E+00  0.0000E+00  0.0000E+00  0.0000E+00  0.0000E+00  0.0000E+00  0.0000E+00  0.0000E+00  0.0000E+00  0.0000E+00  0.0000E+00  0.0000E+00  0.0000E+00  0.0000E+00  0.0000E+00  0.0000E+00  0.0000E+00  0.0000E+00  0.0000E+00  0.0000E+00  0.1974E+02
REACH 1117        0   1  2 2011   0.5972E+03  0.5383E-05  0.0000E+00  0.5383E-05  0.0000E+00  0.1182E-07  0.0000E+00  0.0000E+00  0.4651E-04  0.0000E+00  0.1395E-03  0.0000E+00  0.4657E-04  0.0000E+00  0.0000E+00  0.0000E+00  0.0000E+00  0.0000E+00  0.4657E-04  0.0000E+00  0.0000E+00  0.0000E+00  0.0000E+00  0.0000E+00  0.0000E+00  0.0000E+00  0.0000E+00  0.0000E+00  0.0000E+00  0.0000E+00  0.0000E+00  0.0000E+00  0.0000E+00  0.0000E+00  0.0000E+00  0.0000E+00  0.0000E+00  0.0000E+00  0.0000E+00  0.0000E+00  0.0000E+00  0.0000E+00  0.0000E+00  0.0000E+00  0.0000E+00  0.0000E+00  0.1974E+02
REACH 1118        0   1  2 2011   0.7884E+04  0.1961E-05  0.0000E+00  0.1961E-05  0.0000E+00  0.1292E-07  0.0000E+00  0.0000E+00  0.1694E-04  0.0000E+00  0.5083E-04  0.0000E+00  0.1696E-04  0.0000E+00  0.0000E+00  0.0000E+00  0.0000E+00  0.0000E+00  0.1696E-04  0.0000E+00  0.0000E+00  0.0000E+00  0.0000E+00  0.0000E+00  0.0000E+00  0.0000E+00  0.0000E+00  0.0000E+00  0.0000E+00  0.0000E+00  0.0000E+00  0.0000E+00  0.0000E+00  0.0000E+00  0.0000E+00  0.0000E+00  0.0000E+00  0.0000E+00  0.0000E+00  0.0000E+00  0.0000E+00  0.0000E+00  0.0000E+00  0.0000E+00  0.0000E+00  0.0000E+00  0.1974E+02
REACH 1119        0   1  2 2011   0.7485E+03  0.5640E-05  0.0000E+00  0.5640E-05  0.0000E+00  0.8391E-08  0.0000E+00  0.0000E+00  0.4873E-04  0.0000E+00  0.1462E-03  0.0000E+00  0.4880E-04  0.0000E+00  0.0000E+00  0.0000E+00  0.0000E+00  0.0000E+00  0.4880E-04  0.0000E+00  0.0000E+00  0.0000E+00  0.0000E+00  0.0000E+00  0.0000E+00  0.0000E+00  0.0000E+00  0.0000E+00  0.0000E+00  0.0000E+00  0.0000E+00  0.0000E+00  0.0000E+00  0.0000E+00  0.0000E+00  0.0000E+00  0.0000E+00  0.0000E+00  0.0000E+00  0.0000E+00  0.0000E+00  0.0000E+00  0.0000E+00  0.0000E+00  0.0000E+00  0.0000E+00  0.1974E+02
REACH 1120        0   1  2 2011   0.4899E+06  0.1131E-05  0.0000E+00  0.1131E-05  0.0000E+00  0.1084E-07  0.0000E+00  0.0000E+00  0.6472E-05  0.0000E+00  0.1942E-04  0.0000E+00  0.6487E-05  0.0000E+00  0.0000E+00  0.0000E+00  0.0000E+00  0.0000E+00  0.6487E-05  0.0000E+00  0.0000E+00  0.0000E+00  0.0000E+00  0.0000E+00  0.0000E+00  0.0000E+00  0.0000E+00  0.0000E+00  0.0000E+00  0.0000E+00  0.0000E+00  0.0000E+00  0.0000E+00  0.0000E+00  0.0000E+00  0.0000E+00  0.0000E+00  0.0000E+00  0.0000E+00  0.0000E+00  0.1000E-02  0.1000E-02  0.1000E-02  0.0000E+00  0.0000E+00  0.0000E+00  0.1974E+02
REACH 1121        0   1  2 2011   0.4906E+06  0.3401E-08  0.0000E+00  0.3401E-08  0.0000E+00  0.2491E-08  0.0000E+00  0.0000E+00  0.2939E-07  0.0000E+00  0.8816E-07  0.0000E+00  0.2942E-07  0.0000E+00  0.0000E+00  0.0000E+00  0.0000E+00  0.0000E+00  0.2942E-07  0.0000E+00  0.0000E+00  0.0000E+00  0.0000E+00  0.0000E+00  0.0000E+00  0.0000E+00  0.0000E+00  0.0000E+00  0.0000E+00  0.0000E+00  0.0000E+00  0.0000E+00  0.0000E+00  0.0000E+00  0.0000E+00  0.0000E+00  0.0000E+00  0.0000E+00  0.0000E+00  0.0000E+00  0.1000E-02  0.1000E-02  0.1000E-02  0.0000E+00  0.0000E+00  0.0000E+00  0.1974E+02
REACH 1122        0   1  2 2011   0.6989E+03  0.5579E-05  0.0000E+00  0.5579E-05  0.0000E+00  0.1249E-07  0.0000E+00  0.0000E+00  0.4820E-04  0.0000E+00  0.1446E-03  0.0000E+00  0.4827E-04  0.0000E+00  0.0000E+00  0.0000E+00  0.0000E+00  0.0000E+00  0.4827E-04  0.0000E+00  0.0000E+00  0.0000E+00  0.0000E+00  0.0000E+00  0.0000E+00  0.0000E+00  0.0000E+00  0.0000E+00  0.0000E+00  0.0000E+00  0.0000E+00  0.0000E+00  0.0000E+00  0.0000E+00  0.0000E+00  0.0000E+00  0.0000E+00  0.0000E+00  0.0000E+00  0.0000E+00  0.0000E+00  0.0000E+00  0.0000E+00  0.0000E+00  0.0000E+00  0.0000E+00  0.1974E+02
REACH 1123        0   1  2 2011   0.4948E+06  0.2558E-08  0.0000E+00  0.2558E-08  0.0000E+00  0.1617E-08  0.0000E+00  0.0000E+00  0.2210E-07  0.0000E+00  0.6630E-07  0.0000E+00  0.2213E-07  0.0000E+00  0.0000E+00  0.0000E+00  0.0000E+00  0.0000E+00  0.2213E-07  0.0000E+00  0.0000E+00  0.0000E+00  0.0000E+00  0.0000E+00  0.0000E+00  0.0000E+00  0.0000E+00  0.0000E+00  0.0000E+00  0.0000E+00  0.0000E+00  0.0000E+00  0.0000E+00  0.0000E+00  0.0000E+00  0.0000E+00  0.0000E+00  0.0000E+00  0.0000E+00  0.0000E+00  0.1000E-02  0.1000E-02  0.1000E-02  0.0000E+00  0.0000E+00  0.0000E+00  0.1974E+02
REACH 1124        0   1  2 2011   0.2555E+03  0.2232E-05  0.0000E+00  0.2232E-05  0.0000E+00  0.7240E-08  0.0000E+00  0.0000E+00  0.1929E-04  0.0000E+00  0.5786E-04  0.0000E+00  0.1931E-04  0.0000E+00  0.0000E+00  0.0000E+00  0.0000E+00  0.0000E+00  0.1931E-04  0.0000E+00  0.0000E+00  0.0000E+00  0.0000E+00  0.0000E+00  0.0000E+00  0.0000E+00  0.0000E+00  0.0000E+00  0.0000E+00  0.0000E+00  0.0000E+00  0.0000E+00  0.0000E+00  0.0000E+00  0.0000E+00  0.0000E+00  0.0000E+00  0.0000E+00  0.0000E+00  0.0000E+00  0.0000E+00  0.0000E+00  0.0000E+00  0.0000E+00  0.0000E+00  0.0000E+00  0.1974E+02
REACH 1125        0   1  2 2011   0.4152E+04  0.5329E-06  0.0000E+00  0.5329E-06  0.0000E+00  0.4041E-08  0.0000E+00  0.0000E+00  0.4605E-05  0.0000E+00  0.1381E-04  0.0000E+00  0.4611E-05  0.0000E+00  0.0000E+00  0.0000E+00  0.0000E+00  0.0000E+00  0.4611E-05  0.0000E+00  0.0000E+00  0.0000E+00  0.0000E+00  0.0000E+00  0.0000E+00  0.0000E+00  0.0000E+00  0.0000E+00  0.0000E+00  0.0000E+00  0.0000E+00  0.0000E+00  0.0000E+00  0.0000E+00  0.0000E+00  0.0000E+00  0.0000E+00  0.0000E+00  0.0000E+00  0.0000E+00  0.0000E+00  0.0000E+00  0.0000E+00  0.0000E+00  0.0000E+00  0.0000E+00  0.1974E+02
REACH 1126        0   1  2 2011   0.3040E+04  0.5166E-05  0.0000E+00  0.5166E-05  0.0000E+00  0.6049E-08  0.0000E+00  0.0000E+00  0.4463E-04  0.0000E+00  0.1339E-03  0.0000E+00  0.4472E-04  0.0000E+00  0.0000E+00  0.0000E+00  0.0000E+00  0.0000E+00  0.4472E-04  0.0000E+00  0.0000E+00  0.0000E+00  0.0000E+00  0.0000E+00  0.0000E+00  0.0000E+00  0.0000E+00  0.0000E+00  0.0000E+00  0.0000E+00  0.0000E+00  0.0000E+00  0.0000E+00  0.0000E+00  0.0000E+00  0.0000E+00  0.0000E+00  0.0000E+00  0.0000E+00  0.0000E+00  0.0000E+00  0.0000E+00  0.0000E+00  0.0000E+00  0.0000E+00  0.0000E+00  0.1974E+02
REACH 1127        0   1  2 2011   0.6582E+03  0.6434E-05  0.0000E+00  0.6434E-05  0.0000E+00  0.8836E-08  0.0000E+00  0.0000E+00  0.5559E-04  0.0000E+00  0.1668E-03  0.0000E+00  0.5565E-04  0.0000E+00  0.0000E+00  0.0000E+00  0.0000E+00  0.0000E+00  0.5565E-04  0.0000E+00  0.0000E+00  0.0000E+00  0.0000E+00  0.0000E+00  0.0000E+00  0.0000E+00  0.0000E+00  0.0000E+00  0.0000E+00  0.0000E+00  0.0000E+00  0.0000E+00  0.0000E+00  0.0000E+00  0.0000E+00  0.0000E+00  0.0000E+00  0.0000E+00  0.0000E+00  0.0000E+00  0.0000E+00  0.0000E+00  0.0000E+00  0.0000E+00  0.0000E+00  0.0000E+00  0.1974E+02
REACH 1128        0   1  2 2011   0.2606E+03  0.1608E-05  0.0000E+00  0.1608E-05  0.0000E+00  0.3260E-08  0.0000E+00  0.0000E+00  0.1389E-04  0.0000E+00  0.4167E-04  0.0000E+00  0.1392E-04  0.0000E+00  0.0000E+00  0.0000E+00  0.0000E+00  0.0000E+00  0.1392E-04  0.0000E+00  0.0000E+00  0.0000E+00  0.0000E+00  0.0000E+00  0.0000E+00  0.0000E+00  0.0000E+00  0.0000E+00  0.0000E+00  0.0000E+00  0.0000E+00  0.0000E+00  0.0000E+00  0.0000E+00  0.0000E+00  0.0000E+00  0.0000E+00  0.0000E+00  0.0000E+00  0.0000E+00  0.0000E+00  0.0000E+00  0.0000E+00  0.0000E+00  0.0000E+00  0.0000E+00  0.1974E+02
REACH 1129        0   1  2 2011   0.1531E+04  0.1098E-04  0.0000E+00  0.1098E-04  0.0000E+00  0.9211E-08  0.0000E+00  0.0000E+00  0.9483E-04  0.0000E+00  0.2845E-03  0.0000E+00  0.9498E-04  0.0000E+00  0.0000E+00  0.0000E+00  0.0000E+00  0.0000E+00  0.9498E-04  0.0000E+00  0.0000E+00  0.0000E+00  0.0000E+00  0.0000E+00  0.0000E+00  0.0000E+00  0.0000E+00  0.0000E+00  0.0000E+00  0.0000E+00  0.0000E+00  0.0000E+00  0.0000E+00  0.0000E+00  0.0000E+00  0.0000E+00  0.0000E+00  0.0000E+00  0.0000E+00  0.0000E+00  0.0000E+00  0.0000E+00  0.0000E+00  0.0000E+00  0.0000E+00  0.0000E+00  0.1974E+02
REACH 1130        0   1  2 2011   0.3872E+04  0.9493E-05  0.0000E+00  0.9493E-05  0.0000E+00  0.2682E-07  0.0000E+00  0.0000E+00  0.8202E-04  0.0000E+00  0.2461E-03  0.0000E+00  0.8211E-04  0.0000E+00  0.0000E+00  0.0000E+00  0.0000E+00  0.0000E+00  0.8211E-04  0.0000E+00  0.0000E+00  0.0000E+00  0.0000E+00  0.0000E+00  0.0000E+00  0.0000E+00  0.0000E+00  0.0000E+00  0.0000E+00  0.0000E+00  0.0000E+00  0.0000E+00  0.0000E+00  0.0000E+00  0.0000E+00  0.0000E+00  0.0000E+00  0.0000E+00  0.0000E+00  0.0000E+00  0.0000E+00  0.0000E+00  0.0000E+00  0.0000E+00  0.0000E+00  0.0000E+00  0.1921E+02
REACH 1131        0   1  2 2011   0.3802E+04  0.1425E-05  0.0000E+00  0.1425E-05  0.0000E+00  0.1343E-07  0.0000E+00  0.0000E+00  0.1231E-04  0.0000E+00  0.3694E-04  0.0000E+00  0.1233E-04  0.0000E+00  0.0000E+00  0.0000E+00  0.0000E+00  0.0000E+00  0.1233E-04  0.0000E+00  0.0000E+00  0.0000E+00  0.0000E+00  0.0000E+00  0.0000E+00  0.0000E+00  0.0000E+00  0.0000E+00  0.0000E+00  0.0000E+00  0.0000E+00  0.0000E+00  0.0000E+00  0.0000E+00  0.0000E+00  0.0000E+00  0.0000E+00  0.0000E+00  0.0000E+00  0.0000E+00  0.0000E+00  0.0000E+00  0.0000E+00  0.0000E+00  0.0000E+00  0.0000E+00  0.1921E+02
REACH 1132        0   1  2 2011   0.3829E+04  0.4450E-05  0.0000E+00  0.4450E-05  0.0000E+00  0.1294E-07  0.0000E+00  0.0000E+00  0.3845E-04  0.0000E+00  0.1153E-03  0.0000E+00  0.3850E-04  0.0000E+00  0.0000E+00  0.0000E+00  0.0000E+00  0.0000E+00  0.3850E-04  0.0000E+00  0.0000E+00  0.0000E+00  0.0000E+00  0.0000E+00  0.0000E+00  0.0000E+00  0.0000E+00  0.0000E+00  0.0000E+00  0.0000E+00  0.0000E+00  0.0000E+00  0.0000E+00  0.0000E+00  0.0000E+00  0.0000E+00  0.0000E+00  0.0000E+00  0.0000E+00  0.0000E+00  0.0000E+00  0.0000E+00  0.0000E+00  0.0000E+00  0.0000E+00  0.0000E+00  0.1921E+02
REACH 1133        0   1  2 2011   0.4607E+03  0.4831E-05  0.0000E+00  0.4831E-05  0.0000E+00  0.1156E-07  0.0000E+00  0.0000E+00  0.4174E-04  0.0000E+00  0.1252E-03  0.0000E+00  0.4179E-04  0.0000E+00  0.0000E+00  0.0000E+00  0.0000E+00  0.0000E+00  0.4179E-04  0.0000E+00  0.0000E+00  0.0000E+00  0.0000E+00  0.0000E+00  0.0000E+00  0.0000E+00  0.0000E+00  0.0000E+00  0.0000E+00  0.0000E+00  0.0000E+00  0.0000E+00  0.0000E+00  0.0000E+00  0.0000E+00  0.0000E+00  0.0000E+00  0.0000E+00  0.0000E+00  0.0000E+00  0.0000E+00  0.0000E+00  0.0000E+00  0.0000E+00  0.0000E+00  0.0000E+00  0.1921E+02
REACH 1134        0   1  2 2011   0.3206E+04  0.4508E-05  0.0000E+00  0.4508E-05  0.0000E+00  0.1639E-07  0.0000E+00  0.0000E+00  0.3895E-04  0.0000E+00  0.1169E-03  0.0000E+00  0.3899E-04  0.0000E+00  0.0000E+00  0.0000E+00  0.0000E+00  0.0000E+00  0.3899E-04  0.0000E+00  0.0000E+00  0.0000E+00  0.0000E+00  0.0000E+00  0.0000E+00  0.0000E+00  0.0000E+00  0.0000E+00  0.0000E+00  0.0000E+00  0.0000E+00  0.0000E+00  0.0000E+00  0.0000E+00  0.0000E+00  0.0000E+00  0.0000E+00  0.0000E+00  0.0000E+00  0.0000E+00  0.0000E+00  0.0000E+00  0.0000E+00  0.0000E+00  0.0000E+00  0.0000E+00  0.1921E+02
REACH 1135        0   1  2 2011   0.1258E+04  0.6185E-05  0.0000E+00  0.6185E-05  0.0000E+00  0.1054E-08  0.0000E+00  0.0000E+00  0.5344E-04  0.0000E+00  0.1603E-03  0.0000E+00  0.5356E-04  0.0000E+00  0.0000E+00  0.0000E+00  0.0000E+00  0.0000E+00  0.5356E-04  0.0000E+00  0.0000E+00  0.0000E+00  0.0000E+00  0.0000E+00  0.0000E+00  0.0000E+00  0.0000E+00  0.0000E+00  0.0000E+00  0.0000E+00  0.0000E+00  0.0000E+00  0.0000E+00  0.0000E+00  0.0000E+00  0.0000E+00  0.0000E+00  0.0000E+00  0.0000E+00  0.0000E+00  0.0000E+00  0.0000E+00  0.0000E+00  0.0000E+00  0.0000E+00  0.0000E+00  0.1921E+02
REACH 1136        0   1  2 2011   0.1542E+04  0.7597E-07  0.0000E+00  0.7597E-07  0.0000E+00  0.8857E-08  0.0000E+00  0.0000E+00  0.6564E-06  0.0000E+00  0.1969E-05  0.0000E+00  0.6570E-06  0.0000E+00  0.0000E+00  0.0000E+00  0.0000E+00  0.0000E+00  0.6570E-06  0.0000E+00  0.0000E+00  0.0000E+00  0.0000E+00  0.0000E+00  0.0000E+00  0.0000E+00  0.0000E+00  0.0000E+00  0.0000E+00  0.0000E+00  0.0000E+00  0.0000E+00  0.0000E+00  0.0000E+00  0.0000E+00  0.0000E+00  0.0000E+00  0.0000E+00  0.0000E+00  0.0000E+00  0.0000E+00  0.0000E+00  0.0000E+00  0.0000E+00  0.0000E+00  0.0000E+00  0.1921E+02
REACH 1137        0   1  2 2011   0.3480E+03  0.3691E-05  0.0000E+00  0.3691E-05  0.0000E+00  0.7774E-08  0.0000E+00  0.0000E+00  0.3189E-04  0.0000E+00  0.9568E-04  0.0000E+00  0.3193E-04  0.0000E+00  0.0000E+00  0.0000E+00  0.0000E+00  0.0000E+00  0.3193E-04  0.0000E+00  0.0000E+00  0.0000E+00  0.0000E+00  0.0000E+00  0.0000E+00  0.0000E+00  0.0000E+00  0.0000E+00  0.0000E+00  0.0000E+00  0.0000E+00  0.0000E+00  0.0000E+00  0.0000E+00  0.0000E+00  0.0000E+00  0.0000E+00  0.0000E+00  0.0000E+00  0.0000E+00  0.0000E+00  0.0000E+00  0.0000E+00  0.0000E+00  0.0000E+00  0.0000E+00  0.1921E+02
REACH 1138        0   1  2 2011   0.1187E+04  0.1119E-04  0.0000E+00  0.1119E-04  0.0000E+00  0.1092E-07  0.0000E+00  0.0000E+00  0.9670E-04  0.0000E+00  0.2901E-03  0.0000E+00  0.9682E-04  0.0000E+00  0.0000E+00  0.0000E+00  0.0000E+00  0.0000E+00  0.9682E-04  0.0000E+00  0.0000E+00  0.0000E+00  0.0000E+00  0.0000E+00  0.0000E+00  0.0000E+00  0.0000E+00  0.0000E+00  0.0000E+00  0.0000E+00  0.0000E+00  0.0000E+00  0.0000E+00  0.0000E+00  0.0000E+00  0.0000E+00  0.0000E+00  0.0000E+00  0.0000E+00  0.0000E+00  0.0000E+00  0.0000E+00  0.0000E+00  0.0000E+00  0.0000E+00  0.0000E+00  0.1921E+02
